data_image0
_chemical_formula_structural       Ca4Zr4O12Ca4Zr4O12Ca4Zr4O12Ca4Zr4O12Ca4Zr4O12Ca4Zr4O12Ca4Zr4O12Ca4Zr4O12Ca4Zr4O12Ca4Zr4O12Ca4Zr4O12Ca4Zr4O12Ca4Zr4O12Ca4Zr4O12Ca4Zr4O12Ca4Zr4O12Ca4Zr4O12Ca4Zr4O12Ca4Zr4O12Ca4Zr4O12Ca4Zr4O12Ca4Zr4O12Ca4Zr4O12Ca4Zr4O12Ca4Zr4O12Ca4Zr4O12Ca4Zr4O12Ca4Zr4O12Ca4Zr4O12Ca4Zr4O12Ca4Zr4O12Ca4Zr4O12Ca4Zr4O12Ca4Zr4O12Ca4Zr4O12Ca4Zr4O12Ca4Zr4O12Ca4Zr4O12Ca4Zr4O12Ca4Zr4O12Ca4Zr4O12Ca4Zr4O12Ca4Zr4O12Ca4Zr4O12Ca4Zr4O12
_chemical_formula_sum              "Ca180 Zr180 O540"
_cell_length_a       29.6476
_cell_length_b       50.9387
_cell_length_c       31.9018
_cell_angle_alpha    90
_cell_angle_beta     90
_cell_angle_gamma    140.007

_space_group_name_H-M_alt    "P 1"
_space_group_IT_number       1

loop_
  _space_group_symop_operation_xyz
  'x, y, z'

loop_
  _atom_site_type_symbol
  _atom_site_label
  _atom_site_symmetry_multiplicity
  _atom_site_fract_x
  _atom_site_fract_y
  _atom_site_fract_z
  _atom_site_occupancy
  Ca  Ca1       1.0  0.30613  0.09983  0.37173  1.0000
  Ca  Ca2       1.0  0.30308  0.02318  0.33039  1.0000
  Ca  Ca3       1.0  0.11079  0.25372  0.36392  1.0000
  Ca  Ca4       1.0  0.16508  0.20263  0.33821  1.0000
  Zr  Zr1       1.0  0.33333  0.16667  0.31346  1.0000
  Zr  Zr2       1.0  0.13793  0.06151  0.35106  1.0000
  Zr  Zr3       1.0  0.16667  0.00000  0.31346  1.0000
  Zr  Zr4       1.0  0.30460  0.22817  0.35106  1.0000
  O   O1        1.0  0.02929  0.01435  0.36250  1.0000
  O   O2        1.0  0.24657  0.10867  0.33962  1.0000
  O   O3        1.0  0.06321  0.17932  0.36147  1.0000
  O   O4        1.0  0.21265  0.27703  0.34066  1.0000
  O   O5        1.0  0.19043  0.32461  0.36975  1.0000
  O   O6        1.0  0.08544  0.13173  0.33238  1.0000
  O   O7        1.0  0.21134  0.18409  0.38573  1.0000
  O   O8        1.0  0.06453  0.27225  0.31639  1.0000
  O   O9        1.0  0.31815  0.19320  0.35146  1.0000
  O   O10       1.0  0.29105  0.26314  0.35067  1.0000
  O   O11       1.0  0.12856  0.01631  0.34521  1.0000
  O   O12       1.0  0.14731  0.10670  0.35692  1.0000
  Ca  Ca5       1.0  0.24866  0.22284  0.44693  1.0000
  Ca  Ca6       1.0  0.24561  0.14619  0.40559  1.0000
  Ca  Ca7       1.0  0.05333  0.04339  0.43912  1.0000
  Ca  Ca8       1.0  0.10761  0.32564  0.41341  1.0000
  Zr  Zr5       1.0  0.27587  0.28968  0.38866  1.0000
  Zr  Zr6       1.0  0.08047  0.18452  0.42626  1.0000
  Zr  Zr7       1.0  0.10920  0.12301  0.38866  1.0000
  Zr  Zr8       1.0  0.24714  0.01785  0.42626  1.0000
  O   O13       1.0  0.30516  0.13736  0.43771  1.0000
  O   O14       1.0  0.18911  0.23168  0.41482  1.0000
  O   O15       1.0  0.00575  0.30233  0.43667  1.0000
  O   O16       1.0  0.15519  0.06671  0.41586  1.0000
  O   O17       1.0  0.13296  0.11429  0.44495  1.0000
  O   O18       1.0  0.02798  0.25474  0.40758  1.0000
  O   O19       1.0  0.15388  0.30710  0.46093  1.0000
  O   O20       1.0  0.00707  0.06193  0.39159  1.0000
  O   O21       1.0  0.26069  0.31621  0.42666  1.0000
  O   O22       1.0  0.23359  0.05282  0.42587  1.0000
  O   O23       1.0  0.07109  0.13932  0.42041  1.0000
  O   O24       1.0  0.08985  0.22971  0.43212  1.0000
  Ca  Ca9       1.0  0.19120  0.01252  0.52214  1.0000
  Ca  Ca10      1.0  0.18815  0.26920  0.48079  1.0000
  Ca  Ca11      1.0  0.32920  0.16641  0.51432  1.0000
  Ca  Ca12      1.0  0.05015  0.11532  0.48861  1.0000
  Zr  Zr9       1.0  0.21841  0.07936  0.46386  1.0000
  Zr  Zr10      1.0  0.02301  0.30753  0.50147  1.0000
  Zr  Zr11      1.0  0.05174  0.24602  0.46386  1.0000
  Zr  Zr12      1.0  0.18967  0.14086  0.50147  1.0000
  O   O25       1.0  0.24770  0.26037  0.51291  1.0000
  O   O26       1.0  0.13165  0.02136  0.49002  1.0000
  O   O27       1.0  0.28162  0.09201  0.51187  1.0000
  O   O28       1.0  0.09773  0.18972  0.49106  1.0000
  O   O29       1.0  0.07550  0.23730  0.52015  1.0000
  O   O30       1.0  0.30385  0.04442  0.48278  1.0000
  O   O31       1.0  0.09641  0.09678  0.53614  1.0000
  O   O32       1.0  0.28294  0.18494  0.46680  1.0000
  O   O33       1.0  0.20323  0.10589  0.50186  1.0000
  O   O34       1.0  0.17612  0.17583  0.50107  1.0000
  O   O35       1.0  0.01363  0.26233  0.49561  1.0000
  O   O36       1.0  0.03239  0.01939  0.50732  1.0000
  Ca  Ca13      1.0  0.13373  0.13553  0.59734  1.0000
  Ca  Ca14      1.0  0.13069  0.05888  0.55600  1.0000
  Ca  Ca15      1.0  0.27173  0.28942  0.58952  1.0000
  Ca  Ca16      1.0  0.32602  0.23833  0.56381  1.0000
  Zr  Zr13      1.0  0.16094  0.20237  0.53907  1.0000
  Zr  Zr14      1.0  0.29888  0.09721  0.57667  1.0000
  Zr  Zr15      1.0  0.32761  0.03570  0.53907  1.0000
  Zr  Zr16      1.0  0.13221  0.26387  0.57667  1.0000
  O   O37       1.0  0.19024  0.05005  0.58811  1.0000
  O   O38       1.0  0.07418  0.14437  0.56523  1.0000
  O   O39       1.0  0.22416  0.21502  0.58707  1.0000
  O   O40       1.0  0.04026  0.31273  0.56626  1.0000
  O   O41       1.0  0.01804  0.02698  0.59535  1.0000
  O   O42       1.0  0.24639  0.16743  0.55798  1.0000
  O   O43       1.0  0.03895  0.21979  0.61134  1.0000
  O   O44       1.0  0.22547  0.30795  0.54200  1.0000
  O   O45       1.0  0.14576  0.22890  0.57706  1.0000
  O   O46       1.0  0.11866  0.29884  0.57627  1.0000
  O   O47       1.0  0.28950  0.05201  0.57081  1.0000
  O   O48       1.0  0.30826  0.14240  0.58252  1.0000
  Ca  Ca17      1.0  0.07627  0.25854  0.67254  1.0000
  Ca  Ca18      1.0  0.07322  0.18189  0.63120  1.0000
  Ca  Ca19      1.0  0.21427  0.07910  0.66472  1.0000
  Ca  Ca20      1.0  0.26856  0.02801  0.63901  1.0000
  Zr  Zr17      1.0  0.10348  0.32538  0.61427  1.0000
  Zr  Zr18      1.0  0.24141  0.22022  0.65187  1.0000
  Zr  Zr19      1.0  0.27015  0.15871  0.61427  1.0000
  Zr  Zr20      1.0  0.07475  0.05355  0.65187  1.0000
  O   O49       1.0  0.13277  0.17306  0.66331  1.0000
  O   O50       1.0  0.01672  0.26738  0.64043  1.0000
  O   O51       1.0  0.16669  0.00470  0.66227  1.0000
  O   O52       1.0  0.31613  0.10241  0.64146  1.0000
  O   O53       1.0  0.29390  0.14999  0.67055  1.0000
  O   O54       1.0  0.18892  0.29044  0.63318  1.0000
  O   O55       1.0  0.31482  0.00947  0.68654  1.0000
  O   O56       1.0  0.16801  0.09763  0.61720  1.0000
  O   O57       1.0  0.08830  0.01858  0.65226  1.0000
  O   O58       1.0  0.06120  0.08852  0.65147  1.0000
  O   O59       1.0  0.23204  0.17502  0.64601  1.0000
  O   O60       1.0  0.25079  0.26541  0.65772  1.0000
  Ca  Ca21      1.0  0.30613  0.43317  0.37173  1.0000
  Ca  Ca22      1.0  0.30308  0.35651  0.33039  1.0000
  Ca  Ca23      1.0  0.11079  0.58705  0.36392  1.0000
  Ca  Ca24      1.0  0.16508  0.53596  0.33821  1.0000
  Zr  Zr21      1.0  0.33333  0.50000  0.31346  1.0000
  Zr  Zr22      1.0  0.13793  0.39484  0.35106  1.0000
  Zr  Zr23      1.0  0.16667  0.33333  0.31346  1.0000
  Zr  Zr24      1.0  0.30460  0.56151  0.35106  1.0000
  O   O61       1.0  0.02929  0.34768  0.36250  1.0000
  O   O62       1.0  0.24657  0.44200  0.33962  1.0000
  O   O63       1.0  0.06321  0.51265  0.36147  1.0000
  O   O64       1.0  0.21265  0.61036  0.34066  1.0000
  O   O65       1.0  0.19043  0.65795  0.36975  1.0000
  O   O66       1.0  0.08544  0.46507  0.33238  1.0000
  O   O67       1.0  0.21134  0.51743  0.38573  1.0000
  O   O68       1.0  0.06453  0.60559  0.31639  1.0000
  O   O69       1.0  0.31815  0.52654  0.35146  1.0000
  O   O70       1.0  0.29105  0.59648  0.35067  1.0000
  O   O71       1.0  0.12856  0.34965  0.34521  1.0000
  O   O72       1.0  0.14731  0.44003  0.35692  1.0000
  Ca  Ca25      1.0  0.24866  0.55618  0.44693  1.0000
  Ca  Ca26      1.0  0.24561  0.47952  0.40559  1.0000
  Ca  Ca27      1.0  0.05333  0.37673  0.43912  1.0000
  Ca  Ca28      1.0  0.10761  0.65897  0.41341  1.0000
  Zr  Zr25      1.0  0.27587  0.62301  0.38866  1.0000
  Zr  Zr26      1.0  0.08047  0.51785  0.42626  1.0000
  Zr  Zr27      1.0  0.10920  0.45634  0.38866  1.0000
  Zr  Zr28      1.0  0.24714  0.35118  0.42626  1.0000
  O   O73       1.0  0.30516  0.47069  0.43771  1.0000
  O   O74       1.0  0.18911  0.56501  0.41482  1.0000
  O   O75       1.0  0.00575  0.63566  0.43667  1.0000
  O   O76       1.0  0.15519  0.40004  0.41586  1.0000
  O   O77       1.0  0.13296  0.44762  0.44495  1.0000
  O   O78       1.0  0.02798  0.58808  0.40758  1.0000
  O   O79       1.0  0.15388  0.64044  0.46093  1.0000
  O   O80       1.0  0.00707  0.39526  0.39159  1.0000
  O   O81       1.0  0.26069  0.64955  0.42666  1.0000
  O   O82       1.0  0.23359  0.38615  0.42587  1.0000
  O   O83       1.0  0.07109  0.47266  0.42041  1.0000
  O   O84       1.0  0.08985  0.56304  0.43212  1.0000
  Ca  Ca29      1.0  0.19120  0.34586  0.52214  1.0000
  Ca  Ca30      1.0  0.18815  0.60254  0.48079  1.0000
  Ca  Ca31      1.0  0.32920  0.49974  0.51432  1.0000
  Ca  Ca32      1.0  0.05015  0.44865  0.48861  1.0000
  Zr  Zr29      1.0  0.21841  0.41269  0.46386  1.0000
  Zr  Zr30      1.0  0.02301  0.64086  0.50147  1.0000
  Zr  Zr31      1.0  0.05174  0.57936  0.46386  1.0000
  Zr  Zr32      1.0  0.18967  0.47420  0.50147  1.0000
  O   O85       1.0  0.24770  0.59370  0.51291  1.0000
  O   O86       1.0  0.13165  0.35469  0.49002  1.0000
  O   O87       1.0  0.28162  0.42534  0.51187  1.0000
  O   O88       1.0  0.09773  0.52305  0.49106  1.0000
  O   O89       1.0  0.07550  0.57064  0.52015  1.0000
  O   O90       1.0  0.30385  0.37776  0.48278  1.0000
  O   O91       1.0  0.09641  0.43012  0.53614  1.0000
  O   O92       1.0  0.28294  0.51828  0.46680  1.0000
  O   O93       1.0  0.20323  0.43923  0.50186  1.0000
  O   O94       1.0  0.17612  0.50916  0.50107  1.0000
  O   O95       1.0  0.01363  0.59567  0.49561  1.0000
  O   O96       1.0  0.03239  0.35272  0.50732  1.0000
  Ca  Ca33      1.0  0.13373  0.46887  0.59734  1.0000
  Ca  Ca34      1.0  0.13069  0.39221  0.55600  1.0000
  Ca  Ca35      1.0  0.27173  0.62275  0.58952  1.0000
  Ca  Ca36      1.0  0.32602  0.57166  0.56381  1.0000
  Zr  Zr33      1.0  0.16094  0.53570  0.53907  1.0000
  Zr  Zr34      1.0  0.29888  0.43054  0.57667  1.0000
  Zr  Zr35      1.0  0.32761  0.36903  0.53907  1.0000
  Zr  Zr36      1.0  0.13221  0.59721  0.57667  1.0000
  O   O97       1.0  0.19024  0.38338  0.58811  1.0000
  O   O98       1.0  0.07418  0.47770  0.56523  1.0000
  O   O99       1.0  0.22416  0.54835  0.58707  1.0000
  O   O100      1.0  0.04026  0.64606  0.56626  1.0000
  O   O101      1.0  0.01804  0.36031  0.59535  1.0000
  O   O102      1.0  0.24639  0.50077  0.55798  1.0000
  O   O103      1.0  0.03895  0.55313  0.61134  1.0000
  O   O104      1.0  0.22547  0.64129  0.54200  1.0000
  O   O105      1.0  0.14576  0.56224  0.57706  1.0000
  O   O106      1.0  0.11866  0.63218  0.57627  1.0000
  O   O107      1.0  0.28950  0.38535  0.57081  1.0000
  O   O108      1.0  0.30826  0.47573  0.58252  1.0000
  Ca  Ca37      1.0  0.07627  0.59188  0.67254  1.0000
  Ca  Ca38      1.0  0.07322  0.51522  0.63120  1.0000
  Ca  Ca39      1.0  0.21427  0.41243  0.66472  1.0000
  Ca  Ca40      1.0  0.26856  0.36134  0.63901  1.0000
  Zr  Zr37      1.0  0.10348  0.65871  0.61427  1.0000
  Zr  Zr38      1.0  0.24141  0.55355  0.65187  1.0000
  Zr  Zr39      1.0  0.27015  0.49205  0.61427  1.0000
  Zr  Zr40      1.0  0.07475  0.38688  0.65187  1.0000
  O   O109      1.0  0.13277  0.50639  0.66331  1.0000
  O   O110      1.0  0.01672  0.60071  0.64043  1.0000
  O   O111      1.0  0.16669  0.33803  0.66227  1.0000
  O   O112      1.0  0.31613  0.43574  0.64146  1.0000
  O   O113      1.0  0.29390  0.48332  0.67055  1.0000
  O   O114      1.0  0.18892  0.62378  0.63318  1.0000
  O   O115      1.0  0.31482  0.34280  0.68654  1.0000
  O   O116      1.0  0.16801  0.43096  0.61720  1.0000
  O   O117      1.0  0.08830  0.35192  0.65226  1.0000
  O   O118      1.0  0.06120  0.42185  0.65147  1.0000
  O   O119      1.0  0.23204  0.50836  0.64601  1.0000
  O   O120      1.0  0.25079  0.59875  0.65772  1.0000
  Ca  Ca41      1.0  0.30613  0.76650  0.37173  1.0000
  Ca  Ca42      1.0  0.30308  0.68985  0.33039  1.0000
  Ca  Ca43      1.0  0.11079  0.92038  0.36392  1.0000
  Ca  Ca44      1.0  0.16508  0.86930  0.33821  1.0000
  Zr  Zr41      1.0  0.33333  0.83333  0.31346  1.0000
  Zr  Zr42      1.0  0.13793  0.72817  0.35106  1.0000
  Zr  Zr43      1.0  0.16667  0.66667  0.31346  1.0000
  Zr  Zr44      1.0  0.30460  0.89484  0.35106  1.0000
  O   O121      1.0  0.02929  0.68101  0.36250  1.0000
  O   O122      1.0  0.24657  0.77533  0.33962  1.0000
  O   O123      1.0  0.06321  0.84598  0.36147  1.0000
  O   O124      1.0  0.21265  0.94369  0.34066  1.0000
  O   O125      1.0  0.19043  0.99128  0.36975  1.0000
  O   O126      1.0  0.08544  0.79840  0.33238  1.0000
  O   O127      1.0  0.21134  0.85076  0.38573  1.0000
  O   O128      1.0  0.06453  0.93892  0.31639  1.0000
  O   O129      1.0  0.31815  0.85987  0.35146  1.0000
  O   O130      1.0  0.29105  0.92981  0.35067  1.0000
  O   O131      1.0  0.12856  0.68298  0.34521  1.0000
  O   O132      1.0  0.14731  0.77337  0.35692  1.0000
  Ca  Ca45      1.0  0.24866  0.88951  0.44693  1.0000
  Ca  Ca46      1.0  0.24561  0.81286  0.40559  1.0000
  Ca  Ca47      1.0  0.05333  0.71006  0.43912  1.0000
  Ca  Ca48      1.0  0.10761  0.99231  0.41341  1.0000
  Zr  Zr45      1.0  0.27587  0.95634  0.38866  1.0000
  Zr  Zr46      1.0  0.08047  0.85118  0.42626  1.0000
  Zr  Zr47      1.0  0.10920  0.78968  0.38866  1.0000
  Zr  Zr48      1.0  0.24714  0.68452  0.42626  1.0000
  O   O133      1.0  0.30516  0.80402  0.43771  1.0000
  O   O134      1.0  0.18911  0.89834  0.41482  1.0000
  O   O135      1.0  0.00575  0.96900  0.43667  1.0000
  O   O136      1.0  0.15519  0.73337  0.41586  1.0000
  O   O137      1.0  0.13296  0.78096  0.44495  1.0000
  O   O138      1.0  0.02798  0.92141  0.40758  1.0000
  O   O139      1.0  0.15388  0.97377  0.46093  1.0000
  O   O140      1.0  0.00707  0.72860  0.39159  1.0000
  O   O141      1.0  0.26069  0.98288  0.42666  1.0000
  O   O142      1.0  0.23359  0.71949  0.42587  1.0000
  O   O143      1.0  0.07109  0.80599  0.42041  1.0000
  O   O144      1.0  0.08985  0.89638  0.43212  1.0000
  Ca  Ca49      1.0  0.19120  0.67919  0.52214  1.0000
  Ca  Ca50      1.0  0.18815  0.93587  0.48079  1.0000
  Ca  Ca51      1.0  0.32920  0.83307  0.51432  1.0000
  Ca  Ca52      1.0  0.05015  0.78198  0.48861  1.0000
  Zr  Zr49      1.0  0.21841  0.74602  0.46386  1.0000
  Zr  Zr50      1.0  0.02301  0.97420  0.50147  1.0000
  Zr  Zr51      1.0  0.05174  0.91269  0.46386  1.0000
  Zr  Zr52      1.0  0.18967  0.80753  0.50147  1.0000
  O   O145      1.0  0.24770  0.92704  0.51291  1.0000
  O   O146      1.0  0.13165  0.68802  0.49002  1.0000
  O   O147      1.0  0.28162  0.75867  0.51187  1.0000
  O   O148      1.0  0.09773  0.85638  0.49106  1.0000
  O   O149      1.0  0.07550  0.90397  0.52015  1.0000
  O   O150      1.0  0.30385  0.71109  0.48278  1.0000
  O   O151      1.0  0.09641  0.76345  0.53614  1.0000
  O   O152      1.0  0.28294  0.85161  0.46680  1.0000
  O   O153      1.0  0.20323  0.77256  0.50186  1.0000
  O   O154      1.0  0.17612  0.84250  0.50107  1.0000
  O   O155      1.0  0.01363  0.92900  0.49561  1.0000
  O   O156      1.0  0.03239  0.68606  0.50732  1.0000
  Ca  Ca53      1.0  0.13373  0.80220  0.59734  1.0000
  Ca  Ca54      1.0  0.13069  0.72555  0.55600  1.0000
  Ca  Ca55      1.0  0.27173  0.95608  0.58952  1.0000
  Ca  Ca56      1.0  0.32602  0.90500  0.56381  1.0000
  Zr  Zr53      1.0  0.16094  0.86903  0.53907  1.0000
  Zr  Zr54      1.0  0.29888  0.76387  0.57667  1.0000
  Zr  Zr55      1.0  0.32761  0.70237  0.53907  1.0000
  Zr  Zr56      1.0  0.13221  0.93054  0.57667  1.0000
  O   O157      1.0  0.19024  0.71671  0.58811  1.0000
  O   O158      1.0  0.07418  0.81103  0.56523  1.0000
  O   O159      1.0  0.22416  0.88168  0.58707  1.0000
  O   O160      1.0  0.04026  0.97940  0.56626  1.0000
  O   O161      1.0  0.01804  0.69365  0.59535  1.0000
  O   O162      1.0  0.24639  0.83410  0.55798  1.0000
  O   O163      1.0  0.03895  0.88646  0.61134  1.0000
  O   O164      1.0  0.22547  0.97462  0.54200  1.0000
  O   O165      1.0  0.14576  0.89557  0.57706  1.0000
  O   O166      1.0  0.11866  0.96551  0.57627  1.0000
  O   O167      1.0  0.28950  0.71868  0.57081  1.0000
  O   O168      1.0  0.30826  0.80907  0.58252  1.0000
  Ca  Ca57      1.0  0.07627  0.92521  0.67254  1.0000
  Ca  Ca58      1.0  0.07322  0.84856  0.63120  1.0000
  Ca  Ca59      1.0  0.21427  0.74576  0.66472  1.0000
  Ca  Ca60      1.0  0.26856  0.69467  0.63901  1.0000
  Zr  Zr57      1.0  0.10348  0.99205  0.61427  1.0000
  Zr  Zr58      1.0  0.24141  0.88688  0.65187  1.0000
  Zr  Zr59      1.0  0.27015  0.82538  0.61427  1.0000
  Zr  Zr60      1.0  0.07475  0.72022  0.65187  1.0000
  O   O169      1.0  0.13277  0.83973  0.66331  1.0000
  O   O170      1.0  0.01672  0.93404  0.64043  1.0000
  O   O171      1.0  0.16669  0.67136  0.66227  1.0000
  O   O172      1.0  0.31613  0.76907  0.64146  1.0000
  O   O173      1.0  0.29390  0.81666  0.67055  1.0000
  O   O174      1.0  0.18892  0.95711  0.63318  1.0000
  O   O175      1.0  0.31482  0.67614  0.68654  1.0000
  O   O176      1.0  0.16801  0.76430  0.61720  1.0000
  O   O177      1.0  0.08830  0.68525  0.65226  1.0000
  O   O178      1.0  0.06120  0.75519  0.65147  1.0000
  O   O179      1.0  0.23204  0.84169  0.64601  1.0000
  O   O180      1.0  0.25079  0.93208  0.65772  1.0000
  Ca  Ca61      1.0  0.63946  0.09983  0.37173  1.0000
  Ca  Ca62      1.0  0.63641  0.02318  0.33039  1.0000
  Ca  Ca63      1.0  0.44413  0.25372  0.36392  1.0000
  Ca  Ca64      1.0  0.49841  0.20263  0.33821  1.0000
  Zr  Zr61      1.0  0.66667  0.16667  0.31346  1.0000
  Zr  Zr62      1.0  0.47127  0.06151  0.35106  1.0000
  Zr  Zr63      1.0  0.50000  0.00000  0.31346  1.0000
  Zr  Zr64      1.0  0.63793  0.22817  0.35106  1.0000
  O   O181      1.0  0.36263  0.01435  0.36250  1.0000
  O   O182      1.0  0.57991  0.10867  0.33962  1.0000
  O   O183      1.0  0.39655  0.17932  0.36147  1.0000
  O   O184      1.0  0.54599  0.27703  0.34066  1.0000
  O   O185      1.0  0.52376  0.32461  0.36975  1.0000
  O   O186      1.0  0.41878  0.13173  0.33238  1.0000
  O   O187      1.0  0.54467  0.18409  0.38573  1.0000
  O   O188      1.0  0.39786  0.27225  0.31639  1.0000
  O   O189      1.0  0.65149  0.19320  0.35146  1.0000
  O   O190      1.0  0.62438  0.26314  0.35067  1.0000
  O   O191      1.0  0.46189  0.01631  0.34521  1.0000
  O   O192      1.0  0.48065  0.10670  0.35692  1.0000
  Ca  Ca65      1.0  0.58200  0.22284  0.44693  1.0000
  Ca  Ca66      1.0  0.57895  0.14619  0.40559  1.0000
  Ca  Ca67      1.0  0.38666  0.04339  0.43912  1.0000
  Ca  Ca68      1.0  0.44095  0.32564  0.41341  1.0000
  Zr  Zr65      1.0  0.60920  0.28968  0.38866  1.0000
  Zr  Zr66      1.0  0.41380  0.18452  0.42626  1.0000
  Zr  Zr67      1.0  0.44254  0.12301  0.38866  1.0000
  Zr  Zr68      1.0  0.58047  0.01785  0.42626  1.0000
  O   O193      1.0  0.63850  0.13736  0.43771  1.0000
  O   O194      1.0  0.52244  0.23168  0.41482  1.0000
  O   O195      1.0  0.33908  0.30233  0.43667  1.0000
  O   O196      1.0  0.48852  0.06671  0.41586  1.0000
  O   O197      1.0  0.46630  0.11429  0.44495  1.0000
  O   O198      1.0  0.36131  0.25474  0.40758  1.0000
  O   O199      1.0  0.48721  0.30710  0.46093  1.0000
  O   O200      1.0  0.34040  0.06193  0.39159  1.0000
  O   O201      1.0  0.59402  0.31621  0.42666  1.0000
  O   O202      1.0  0.56692  0.05282  0.42587  1.0000
  O   O203      1.0  0.40443  0.13932  0.42041  1.0000
  O   O204      1.0  0.42318  0.22971  0.43212  1.0000
  Ca  Ca69      1.0  0.52453  0.01252  0.52214  1.0000
  Ca  Ca70      1.0  0.52148  0.26920  0.48079  1.0000
  Ca  Ca71      1.0  0.66253  0.16641  0.51432  1.0000
  Ca  Ca72      1.0  0.38348  0.11532  0.48861  1.0000
  Zr  Zr69      1.0  0.55174  0.07936  0.46386  1.0000
  Zr  Zr70      1.0  0.35634  0.30753  0.50147  1.0000
  Zr  Zr71      1.0  0.38507  0.24602  0.46386  1.0000
  Zr  Zr72      1.0  0.52301  0.14086  0.50147  1.0000
  O   O205      1.0  0.58103  0.26037  0.51291  1.0000
  O   O206      1.0  0.46498  0.02136  0.49002  1.0000
  O   O207      1.0  0.61495  0.09201  0.51187  1.0000
  O   O208      1.0  0.43106  0.18972  0.49106  1.0000
  O   O209      1.0  0.40883  0.23730  0.52015  1.0000
  O   O210      1.0  0.63718  0.04442  0.48278  1.0000
  O   O211      1.0  0.42975  0.09678  0.53614  1.0000
  O   O212      1.0  0.61627  0.18494  0.46680  1.0000
  O   O213      1.0  0.53656  0.10589  0.50186  1.0000
  O   O214      1.0  0.50946  0.17583  0.50107  1.0000
  O   O215      1.0  0.34696  0.26233  0.49561  1.0000
  O   O216      1.0  0.36572  0.01939  0.50732  1.0000
  Ca  Ca73      1.0  0.46707  0.13553  0.59734  1.0000
  Ca  Ca74      1.0  0.46402  0.05888  0.55600  1.0000
  Ca  Ca75      1.0  0.60507  0.28942  0.58952  1.0000
  Ca  Ca76      1.0  0.65935  0.23833  0.56381  1.0000
  Zr  Zr73      1.0  0.49428  0.20237  0.53907  1.0000
  Zr  Zr74      1.0  0.63221  0.09721  0.57667  1.0000
  Zr  Zr75      1.0  0.66094  0.03570  0.53907  1.0000
  Zr  Zr76      1.0  0.46554  0.26387  0.57667  1.0000
  O   O217      1.0  0.52357  0.05005  0.58811  1.0000
  O   O218      1.0  0.40752  0.14437  0.56523  1.0000
  O   O219      1.0  0.55749  0.21502  0.58707  1.0000
  O   O220      1.0  0.37360  0.31273  0.56626  1.0000
  O   O221      1.0  0.35137  0.02698  0.59535  1.0000
  O   O222      1.0  0.57972  0.16743  0.55798  1.0000
  O   O223      1.0  0.37228  0.21979  0.61134  1.0000
  O   O224      1.0  0.55881  0.30795  0.54200  1.0000
  O   O225      1.0  0.47910  0.22890  0.57706  1.0000
  O   O226      1.0  0.45199  0.29884  0.57627  1.0000
  O   O227      1.0  0.62283  0.05201  0.57081  1.0000
  O   O228      1.0  0.64159  0.14240  0.58252  1.0000
  Ca  Ca77      1.0  0.40960  0.25854  0.67254  1.0000
  Ca  Ca78      1.0  0.40656  0.18189  0.63120  1.0000
  Ca  Ca79      1.0  0.54760  0.07910  0.66472  1.0000
  Ca  Ca80      1.0  0.60189  0.02801  0.63901  1.0000
  Zr  Zr77      1.0  0.43681  0.32538  0.61427  1.0000
  Zr  Zr78      1.0  0.57475  0.22022  0.65187  1.0000
  Zr  Zr79      1.0  0.60348  0.15871  0.61427  1.0000
  Zr  Zr80      1.0  0.40808  0.05355  0.65187  1.0000
  O   O229      1.0  0.46611  0.17306  0.66331  1.0000
  O   O230      1.0  0.35005  0.26738  0.64043  1.0000
  O   O231      1.0  0.50003  0.00470  0.66227  1.0000
  O   O232      1.0  0.64947  0.10241  0.64146  1.0000
  O   O233      1.0  0.62724  0.14999  0.67055  1.0000
  O   O234      1.0  0.52226  0.29044  0.63318  1.0000
  O   O235      1.0  0.64815  0.00947  0.68654  1.0000
  O   O236      1.0  0.50134  0.09763  0.61720  1.0000
  O   O237      1.0  0.42163  0.01858  0.65226  1.0000
  O   O238      1.0  0.39453  0.08852  0.65147  1.0000
  O   O239      1.0  0.56537  0.17502  0.64601  1.0000
  O   O240      1.0  0.58413  0.26541  0.65772  1.0000
  Ca  Ca81      1.0  0.63946  0.43317  0.37173  1.0000
  Ca  Ca82      1.0  0.63641  0.35651  0.33039  1.0000
  Ca  Ca83      1.0  0.44413  0.58705  0.36392  1.0000
  Ca  Ca84      1.0  0.49841  0.53596  0.33821  1.0000
  Zr  Zr81      1.0  0.66667  0.50000  0.31346  1.0000
  Zr  Zr82      1.0  0.47127  0.39484  0.35106  1.0000
  Zr  Zr83      1.0  0.50000  0.33333  0.31346  1.0000
  Zr  Zr84      1.0  0.63793  0.56151  0.35106  1.0000
  O   O241      1.0  0.36263  0.34768  0.36250  1.0000
  O   O242      1.0  0.57991  0.44200  0.33962  1.0000
  O   O243      1.0  0.39655  0.51265  0.36147  1.0000
  O   O244      1.0  0.54599  0.61036  0.34066  1.0000
  O   O245      1.0  0.52376  0.65795  0.36975  1.0000
  O   O246      1.0  0.41878  0.46507  0.33238  1.0000
  O   O247      1.0  0.54467  0.51743  0.38573  1.0000
  O   O248      1.0  0.39786  0.60559  0.31639  1.0000
  O   O249      1.0  0.65149  0.52654  0.35146  1.0000
  O   O250      1.0  0.62438  0.59648  0.35067  1.0000
  O   O251      1.0  0.46189  0.34965  0.34521  1.0000
  O   O252      1.0  0.48065  0.44003  0.35692  1.0000
  Ca  Ca85      1.0  0.58200  0.55618  0.44693  1.0000
  Ca  Ca86      1.0  0.57895  0.47952  0.40559  1.0000
  Ca  Ca87      1.0  0.38666  0.37673  0.43912  1.0000
  Ca  Ca88      1.0  0.44095  0.65897  0.41341  1.0000
  Zr  Zr85      1.0  0.60920  0.62301  0.38866  1.0000
  Zr  Zr86      1.0  0.41380  0.51785  0.42626  1.0000
  Zr  Zr87      1.0  0.44254  0.45634  0.38866  1.0000
  Zr  Zr88      1.0  0.58047  0.35118  0.42626  1.0000
  O   O253      1.0  0.63850  0.47069  0.43771  1.0000
  O   O254      1.0  0.52244  0.56501  0.41482  1.0000
  O   O255      1.0  0.33908  0.63566  0.43667  1.0000
  O   O256      1.0  0.48852  0.40004  0.41586  1.0000
  O   O257      1.0  0.46630  0.44762  0.44495  1.0000
  O   O258      1.0  0.36131  0.58808  0.40758  1.0000
  O   O259      1.0  0.48721  0.64044  0.46093  1.0000
  O   O260      1.0  0.34040  0.39526  0.39159  1.0000
  O   O261      1.0  0.59402  0.64955  0.42666  1.0000
  O   O262      1.0  0.56692  0.38615  0.42587  1.0000
  O   O263      1.0  0.40443  0.47266  0.42041  1.0000
  O   O264      1.0  0.42318  0.56304  0.43212  1.0000
  Ca  Ca89      1.0  0.52453  0.34586  0.52214  1.0000
  Ca  Ca90      1.0  0.52148  0.60254  0.48079  1.0000
  Ca  Ca91      1.0  0.66253  0.49974  0.51432  1.0000
  Ca  Ca92      1.0  0.38348  0.44865  0.48861  1.0000
  Zr  Zr89      1.0  0.55174  0.41269  0.46386  1.0000
  Zr  Zr90      1.0  0.35634  0.64086  0.50147  1.0000
  Zr  Zr91      1.0  0.38507  0.57936  0.46386  1.0000
  Zr  Zr92      1.0  0.52301  0.47420  0.50147  1.0000
  O   O265      1.0  0.58103  0.59370  0.51291  1.0000
  O   O266      1.0  0.46498  0.35469  0.49002  1.0000
  O   O267      1.0  0.61495  0.42534  0.51187  1.0000
  O   O268      1.0  0.43106  0.52305  0.49106  1.0000
  O   O269      1.0  0.40883  0.57064  0.52015  1.0000
  O   O270      1.0  0.63718  0.37776  0.48278  1.0000
  O   O271      1.0  0.42975  0.43012  0.53614  1.0000
  O   O272      1.0  0.61627  0.51828  0.46680  1.0000
  O   O273      1.0  0.53656  0.43923  0.50186  1.0000
  O   O274      1.0  0.50946  0.50916  0.50107  1.0000
  O   O275      1.0  0.34696  0.59567  0.49561  1.0000
  O   O276      1.0  0.36572  0.35272  0.50732  1.0000
  Ca  Ca93      1.0  0.46707  0.46887  0.59734  1.0000
  Ca  Ca94      1.0  0.46402  0.39221  0.55600  1.0000
  Ca  Ca95      1.0  0.60507  0.62275  0.58952  1.0000
  Ca  Ca96      1.0  0.65935  0.57166  0.56381  1.0000
  Zr  Zr93      1.0  0.49428  0.53570  0.53907  1.0000
  Zr  Zr94      1.0  0.63221  0.43054  0.57667  1.0000
  Zr  Zr95      1.0  0.66094  0.36903  0.53907  1.0000
  Zr  Zr96      1.0  0.46554  0.59721  0.57667  1.0000
  O   O277      1.0  0.52357  0.38338  0.58811  1.0000
  O   O278      1.0  0.40752  0.47770  0.56523  1.0000
  O   O279      1.0  0.55749  0.54835  0.58707  1.0000
  O   O280      1.0  0.37360  0.64606  0.56626  1.0000
  O   O281      1.0  0.35137  0.36031  0.59535  1.0000
  O   O282      1.0  0.57972  0.50077  0.55798  1.0000
  O   O283      1.0  0.37228  0.55313  0.61134  1.0000
  O   O284      1.0  0.55881  0.64129  0.54200  1.0000
  O   O285      1.0  0.47910  0.56224  0.57706  1.0000
  O   O286      1.0  0.45199  0.63218  0.57627  1.0000
  O   O287      1.0  0.62283  0.38535  0.57081  1.0000
  O   O288      1.0  0.64159  0.47573  0.58252  1.0000
  Ca  Ca97      1.0  0.40960  0.59188  0.67254  1.0000
  Ca  Ca98      1.0  0.40656  0.51522  0.63120  1.0000
  Ca  Ca99      1.0  0.54760  0.41243  0.66472  1.0000
  Ca  Ca100     1.0  0.60189  0.36134  0.63901  1.0000
  Zr  Zr97      1.0  0.43681  0.65871  0.61427  1.0000
  Zr  Zr98      1.0  0.57475  0.55355  0.65187  1.0000
  Zr  Zr99      1.0  0.60348  0.49205  0.61427  1.0000
  Zr  Zr100     1.0  0.40808  0.38688  0.65187  1.0000
  O   O289      1.0  0.46611  0.50639  0.66331  1.0000
  O   O290      1.0  0.35005  0.60071  0.64043  1.0000
  O   O291      1.0  0.50003  0.33803  0.66227  1.0000
  O   O292      1.0  0.64947  0.43574  0.64146  1.0000
  O   O293      1.0  0.62724  0.48332  0.67055  1.0000
  O   O294      1.0  0.52226  0.62378  0.63318  1.0000
  O   O295      1.0  0.64815  0.34280  0.68654  1.0000
  O   O296      1.0  0.50134  0.43096  0.61720  1.0000
  O   O297      1.0  0.42163  0.35192  0.65226  1.0000
  O   O298      1.0  0.39453  0.42185  0.65147  1.0000
  O   O299      1.0  0.56537  0.50836  0.64601  1.0000
  O   O300      1.0  0.58413  0.59875  0.65772  1.0000
  Ca  Ca101     1.0  0.63946  0.76650  0.37173  1.0000
  Ca  Ca102     1.0  0.63641  0.68985  0.33039  1.0000
  Ca  Ca103     1.0  0.44413  0.92038  0.36392  1.0000
  Ca  Ca104     1.0  0.49841  0.86930  0.33821  1.0000
  Zr  Zr101     1.0  0.66667  0.83333  0.31346  1.0000
  Zr  Zr102     1.0  0.47127  0.72817  0.35106  1.0000
  Zr  Zr103     1.0  0.50000  0.66667  0.31346  1.0000
  Zr  Zr104     1.0  0.63793  0.89484  0.35106  1.0000
  O   O301      1.0  0.36263  0.68101  0.36250  1.0000
  O   O302      1.0  0.57991  0.77533  0.33962  1.0000
  O   O303      1.0  0.39655  0.84598  0.36147  1.0000
  O   O304      1.0  0.54599  0.94369  0.34066  1.0000
  O   O305      1.0  0.52376  0.99128  0.36975  1.0000
  O   O306      1.0  0.41878  0.79840  0.33238  1.0000
  O   O307      1.0  0.54467  0.85076  0.38573  1.0000
  O   O308      1.0  0.39786  0.93892  0.31639  1.0000
  O   O309      1.0  0.65149  0.85987  0.35146  1.0000
  O   O310      1.0  0.62438  0.92981  0.35067  1.0000
  O   O311      1.0  0.46189  0.68298  0.34521  1.0000
  O   O312      1.0  0.48065  0.77337  0.35692  1.0000
  Ca  Ca105     1.0  0.58200  0.88951  0.44693  1.0000
  Ca  Ca106     1.0  0.57895  0.81286  0.40559  1.0000
  Ca  Ca107     1.0  0.38666  0.71006  0.43912  1.0000
  Ca  Ca108     1.0  0.44095  0.99231  0.41341  1.0000
  Zr  Zr105     1.0  0.60920  0.95634  0.38866  1.0000
  Zr  Zr106     1.0  0.41380  0.85118  0.42626  1.0000
  Zr  Zr107     1.0  0.44254  0.78968  0.38866  1.0000
  Zr  Zr108     1.0  0.58047  0.68452  0.42626  1.0000
  O   O313      1.0  0.63850  0.80402  0.43771  1.0000
  O   O314      1.0  0.52244  0.89834  0.41482  1.0000
  O   O315      1.0  0.33908  0.96900  0.43667  1.0000
  O   O316      1.0  0.48852  0.73337  0.41586  1.0000
  O   O317      1.0  0.46630  0.78096  0.44495  1.0000
  O   O318      1.0  0.36131  0.92141  0.40758  1.0000
  O   O319      1.0  0.48721  0.97377  0.46093  1.0000
  O   O320      1.0  0.34040  0.72860  0.39159  1.0000
  O   O321      1.0  0.59402  0.98288  0.42666  1.0000
  O   O322      1.0  0.56692  0.71949  0.42587  1.0000
  O   O323      1.0  0.40443  0.80599  0.42041  1.0000
  O   O324      1.0  0.42318  0.89638  0.43212  1.0000
  Ca  Ca109     1.0  0.52453  0.67919  0.52214  1.0000
  Ca  Ca110     1.0  0.52148  0.93587  0.48079  1.0000
  Ca  Ca111     1.0  0.66253  0.83307  0.51432  1.0000
  Ca  Ca112     1.0  0.38348  0.78198  0.48861  1.0000
  Zr  Zr109     1.0  0.55174  0.74602  0.46386  1.0000
  Zr  Zr110     1.0  0.35634  0.97420  0.50147  1.0000
  Zr  Zr111     1.0  0.38507  0.91269  0.46386  1.0000
  Zr  Zr112     1.0  0.52301  0.80753  0.50147  1.0000
  O   O325      1.0  0.58103  0.92704  0.51291  1.0000
  O   O326      1.0  0.46498  0.68802  0.49002  1.0000
  O   O327      1.0  0.61495  0.75867  0.51187  1.0000
  O   O328      1.0  0.43106  0.85638  0.49106  1.0000
  O   O329      1.0  0.40883  0.90397  0.52015  1.0000
  O   O330      1.0  0.63718  0.71109  0.48278  1.0000
  O   O331      1.0  0.42975  0.76345  0.53614  1.0000
  O   O332      1.0  0.61627  0.85161  0.46680  1.0000
  O   O333      1.0  0.53656  0.77256  0.50186  1.0000
  O   O334      1.0  0.50946  0.84250  0.50107  1.0000
  O   O335      1.0  0.34696  0.92900  0.49561  1.0000
  O   O336      1.0  0.36572  0.68606  0.50732  1.0000
  Ca  Ca113     1.0  0.46707  0.80220  0.59734  1.0000
  Ca  Ca114     1.0  0.46402  0.72555  0.55600  1.0000
  Ca  Ca115     1.0  0.60507  0.95608  0.58952  1.0000
  Ca  Ca116     1.0  0.65935  0.90500  0.56381  1.0000
  Zr  Zr113     1.0  0.49428  0.86903  0.53907  1.0000
  Zr  Zr114     1.0  0.63221  0.76387  0.57667  1.0000
  Zr  Zr115     1.0  0.66094  0.70237  0.53907  1.0000
  Zr  Zr116     1.0  0.46554  0.93054  0.57667  1.0000
  O   O337      1.0  0.52357  0.71671  0.58811  1.0000
  O   O338      1.0  0.40752  0.81103  0.56523  1.0000
  O   O339      1.0  0.55749  0.88168  0.58707  1.0000
  O   O340      1.0  0.37360  0.97940  0.56626  1.0000
  O   O341      1.0  0.35137  0.69365  0.59535  1.0000
  O   O342      1.0  0.57972  0.83410  0.55798  1.0000
  O   O343      1.0  0.37228  0.88646  0.61134  1.0000
  O   O344      1.0  0.55881  0.97462  0.54200  1.0000
  O   O345      1.0  0.47910  0.89557  0.57706  1.0000
  O   O346      1.0  0.45199  0.96551  0.57627  1.0000
  O   O347      1.0  0.62283  0.71868  0.57081  1.0000
  O   O348      1.0  0.64159  0.80907  0.58252  1.0000
  Ca  Ca117     1.0  0.40960  0.92521  0.67254  1.0000
  Ca  Ca118     1.0  0.40656  0.84856  0.63120  1.0000
  Ca  Ca119     1.0  0.54760  0.74576  0.66472  1.0000
  Ca  Ca120     1.0  0.60189  0.69467  0.63901  1.0000
  Zr  Zr117     1.0  0.43681  0.99205  0.61427  1.0000
  Zr  Zr118     1.0  0.57475  0.88688  0.65187  1.0000
  Zr  Zr119     1.0  0.60348  0.82538  0.61427  1.0000
  Zr  Zr120     1.0  0.40808  0.72022  0.65187  1.0000
  O   O349      1.0  0.46611  0.83973  0.66331  1.0000
  O   O350      1.0  0.35005  0.93404  0.64043  1.0000
  O   O351      1.0  0.50003  0.67136  0.66227  1.0000
  O   O352      1.0  0.64947  0.76907  0.64146  1.0000
  O   O353      1.0  0.62724  0.81666  0.67055  1.0000
  O   O354      1.0  0.52226  0.95711  0.63318  1.0000
  O   O355      1.0  0.64815  0.67614  0.68654  1.0000
  O   O356      1.0  0.50134  0.76430  0.61720  1.0000
  O   O357      1.0  0.42163  0.68525  0.65226  1.0000
  O   O358      1.0  0.39453  0.75519  0.65147  1.0000
  O   O359      1.0  0.56537  0.84169  0.64601  1.0000
  O   O360      1.0  0.58413  0.93208  0.65772  1.0000
  Ca  Ca121     1.0  0.97279  0.09983  0.37173  1.0000
  Ca  Ca122     1.0  0.96974  0.02318  0.33039  1.0000
  Ca  Ca123     1.0  0.77746  0.25372  0.36392  1.0000
  Ca  Ca124     1.0  0.83174  0.20263  0.33821  1.0000
  Zr  Zr121     1.0  1.00000  0.16667  0.31346  1.0000
  Zr  Zr122     1.0  0.80460  0.06151  0.35106  1.0000
  Zr  Zr123     1.0  0.83333  0.00000  0.31346  1.0000
  Zr  Zr124     1.0  0.97127  0.22817  0.35106  1.0000
  O   O361      1.0  0.69596  0.01435  0.36250  1.0000
  O   O362      1.0  0.91324  0.10867  0.33962  1.0000
  O   O363      1.0  0.72988  0.17932  0.36147  1.0000
  O   O364      1.0  0.87932  0.27703  0.34066  1.0000
  O   O365      1.0  0.85709  0.32461  0.36975  1.0000
  O   O366      1.0  0.75211  0.13173  0.33238  1.0000
  O   O367      1.0  0.87801  0.18409  0.38573  1.0000
  O   O368      1.0  0.73120  0.27225  0.31639  1.0000
  O   O369      1.0  0.98482  0.19320  0.35146  1.0000
  O   O370      1.0  0.95772  0.26314  0.35067  1.0000
  O   O371      1.0  0.79522  0.01631  0.34521  1.0000
  O   O372      1.0  0.81398  0.10670  0.35692  1.0000
  Ca  Ca125     1.0  0.91533  0.22284  0.44693  1.0000
  Ca  Ca126     1.0  0.91228  0.14619  0.40559  1.0000
  Ca  Ca127     1.0  0.71999  0.04339  0.43912  1.0000
  Ca  Ca128     1.0  0.77428  0.32564  0.41341  1.0000
  Zr  Zr125     1.0  0.94254  0.28968  0.38866  1.0000
  Zr  Zr126     1.0  0.74714  0.18452  0.42626  1.0000
  Zr  Zr127     1.0  0.77587  0.12301  0.38866  1.0000
  Zr  Zr128     1.0  0.91380  0.01785  0.42626  1.0000
  O   O373      1.0  0.97183  0.13736  0.43771  1.0000
  O   O374      1.0  0.85578  0.23168  0.41482  1.0000
  O   O375      1.0  0.67242  0.30233  0.43667  1.0000
  O   O376      1.0  0.82186  0.06671  0.41586  1.0000
  O   O377      1.0  0.79963  0.11429  0.44495  1.0000
  O   O378      1.0  0.69465  0.25474  0.40758  1.0000
  O   O379      1.0  0.82054  0.30710  0.46093  1.0000
  O   O380      1.0  0.67373  0.06193  0.39159  1.0000
  O   O381      1.0  0.92736  0.31621  0.42666  1.0000
  O   O382      1.0  0.90025  0.05282  0.42587  1.0000
  O   O383      1.0  0.73776  0.13932  0.42041  1.0000
  O   O384      1.0  0.75652  0.22971  0.43212  1.0000
  Ca  Ca129     1.0  0.85787  0.01252  0.52214  1.0000
  Ca  Ca130     1.0  0.85482  0.26920  0.48079  1.0000
  Ca  Ca131     1.0  0.99586  0.16641  0.51432  1.0000
  Ca  Ca132     1.0  0.71682  0.11532  0.48861  1.0000
  Zr  Zr129     1.0  0.88507  0.07936  0.46386  1.0000
  Zr  Zr130     1.0  0.68967  0.30753  0.50147  1.0000
  Zr  Zr131     1.0  0.71841  0.24602  0.46386  1.0000
  Zr  Zr132     1.0  0.85634  0.14086  0.50147  1.0000
  O   O385      1.0  0.91437  0.26037  0.51291  1.0000
  O   O386      1.0  0.79831  0.02136  0.49002  1.0000
  O   O387      1.0  0.94829  0.09201  0.51187  1.0000
  O   O388      1.0  0.76439  0.18972  0.49106  1.0000
  O   O389      1.0  0.74217  0.23730  0.52015  1.0000
  O   O390      1.0  0.97052  0.04442  0.48278  1.0000
  O   O391      1.0  0.76308  0.09678  0.53614  1.0000
  O   O392      1.0  0.94960  0.18494  0.46680  1.0000
  O   O393      1.0  0.86989  0.10589  0.50186  1.0000
  O   O394      1.0  0.84279  0.17583  0.50107  1.0000
  O   O395      1.0  0.68030  0.26233  0.49561  1.0000
  O   O396      1.0  0.69905  0.01939  0.50732  1.0000
  Ca  Ca133     1.0  0.80040  0.13553  0.59734  1.0000
  Ca  Ca134     1.0  0.79735  0.05888  0.55600  1.0000
  Ca  Ca135     1.0  0.93840  0.28942  0.58952  1.0000
  Ca  Ca136     1.0  0.99269  0.23833  0.56381  1.0000
  Zr  Zr133     1.0  0.82761  0.20237  0.53907  1.0000
  Zr  Zr134     1.0  0.96554  0.09721  0.57667  1.0000
  Zr  Zr135     1.0  0.99428  0.03570  0.53907  1.0000
  Zr  Zr136     1.0  0.79888  0.26387  0.57667  1.0000
  O   O397      1.0  0.85690  0.05005  0.58811  1.0000
  O   O398      1.0  0.74085  0.14437  0.56523  1.0000
  O   O399      1.0  0.89082  0.21502  0.58707  1.0000
  O   O400      1.0  0.70693  0.31273  0.56626  1.0000
  O   O401      1.0  0.68470  0.02698  0.59535  1.0000
  O   O402      1.0  0.91305  0.16743  0.55798  1.0000
  O   O403      1.0  0.70562  0.21979  0.61134  1.0000
  O   O404      1.0  0.89214  0.30795  0.54200  1.0000
  O   O405      1.0  0.81243  0.22890  0.57706  1.0000
  O   O406      1.0  0.78533  0.29884  0.57627  1.0000
  O   O407      1.0  0.95617  0.05201  0.57081  1.0000
  O   O408      1.0  0.97492  0.14240  0.58252  1.0000
  Ca  Ca137     1.0  0.74294  0.25854  0.67254  1.0000
  Ca  Ca138     1.0  0.73989  0.18189  0.63120  1.0000
  Ca  Ca139     1.0  0.88094  0.07910  0.66472  1.0000
  Ca  Ca140     1.0  0.93522  0.02801  0.63901  1.0000
  Zr  Zr137     1.0  0.77015  0.32538  0.61427  1.0000
  Zr  Zr138     1.0  0.90808  0.22022  0.65187  1.0000
  Zr  Zr139     1.0  0.93681  0.15871  0.61427  1.0000
  Zr  Zr140     1.0  0.74141  0.05355  0.65187  1.0000
  O   O409      1.0  0.79944  0.17306  0.66331  1.0000
  O   O410      1.0  0.68339  0.26738  0.64043  1.0000
  O   O411      1.0  0.83336  0.00470  0.66227  1.0000
  O   O412      1.0  0.98280  0.10241  0.64146  1.0000
  O   O413      1.0  0.96057  0.14999  0.67055  1.0000
  O   O414      1.0  0.85559  0.29044  0.63318  1.0000
  O   O415      1.0  0.98149  0.00947  0.68654  1.0000
  O   O416      1.0  0.83468  0.09763  0.61720  1.0000
  O   O417      1.0  0.75496  0.01858  0.65226  1.0000
  O   O418      1.0  0.72786  0.08852  0.65147  1.0000
  O   O419      1.0  0.89870  0.17502  0.64601  1.0000
  O   O420      1.0  0.91746  0.26541  0.65772  1.0000
  Ca  Ca141     1.0  0.97279  0.43317  0.37173  1.0000
  Ca  Ca142     1.0  0.96974  0.35651  0.33039  1.0000
  Ca  Ca143     1.0  0.77746  0.58705  0.36392  1.0000
  Ca  Ca144     1.0  0.83174  0.53596  0.33821  1.0000
  Zr  Zr141     1.0  0.00000  0.50000  0.31346  1.0000
  Zr  Zr142     1.0  0.80460  0.39484  0.35106  1.0000
  Zr  Zr143     1.0  0.83333  0.33333  0.31346  1.0000
  Zr  Zr144     1.0  0.97127  0.56151  0.35106  1.0000
  O   O421      1.0  0.69596  0.34768  0.36250  1.0000
  O   O422      1.0  0.91324  0.44200  0.33962  1.0000
  O   O423      1.0  0.72988  0.51265  0.36147  1.0000
  O   O424      1.0  0.87932  0.61036  0.34066  1.0000
  O   O425      1.0  0.85709  0.65795  0.36975  1.0000
  O   O426      1.0  0.75211  0.46507  0.33238  1.0000
  O   O427      1.0  0.87801  0.51743  0.38573  1.0000
  O   O428      1.0  0.73120  0.60559  0.31639  1.0000
  O   O429      1.0  0.98482  0.52654  0.35146  1.0000
  O   O430      1.0  0.95772  0.59648  0.35067  1.0000
  O   O431      1.0  0.79522  0.34965  0.34521  1.0000
  O   O432      1.0  0.81398  0.44003  0.35692  1.0000
  Ca  Ca145     1.0  0.91533  0.55618  0.44693  1.0000
  Ca  Ca146     1.0  0.91228  0.47952  0.40559  1.0000
  Ca  Ca147     1.0  0.71999  0.37673  0.43912  1.0000
  Ca  Ca148     1.0  0.77428  0.65897  0.41341  1.0000
  Zr  Zr145     1.0  0.94254  0.62301  0.38866  1.0000
  Zr  Zr146     1.0  0.74714  0.51785  0.42626  1.0000
  Zr  Zr147     1.0  0.77587  0.45634  0.38866  1.0000
  Zr  Zr148     1.0  0.91380  0.35118  0.42626  1.0000
  O   O433      1.0  0.97183  0.47069  0.43771  1.0000
  O   O434      1.0  0.85578  0.56501  0.41482  1.0000
  O   O435      1.0  0.67242  0.63566  0.43667  1.0000
  O   O436      1.0  0.82186  0.40004  0.41586  1.0000
  O   O437      1.0  0.79963  0.44762  0.44495  1.0000
  O   O438      1.0  0.69465  0.58808  0.40758  1.0000
  O   O439      1.0  0.82054  0.64044  0.46093  1.0000
  O   O440      1.0  0.67373  0.39526  0.39159  1.0000
  O   O441      1.0  0.92736  0.64955  0.42666  1.0000
  O   O442      1.0  0.90025  0.38615  0.42587  1.0000
  O   O443      1.0  0.73776  0.47266  0.42041  1.0000
  O   O444      1.0  0.75652  0.56304  0.43212  1.0000
  Ca  Ca149     1.0  0.85787  0.34586  0.52214  1.0000
  Ca  Ca150     1.0  0.85482  0.60254  0.48079  1.0000
  Ca  Ca151     1.0  0.99586  0.49974  0.51432  1.0000
  Ca  Ca152     1.0  0.71682  0.44865  0.48861  1.0000
  Zr  Zr149     1.0  0.88507  0.41269  0.46386  1.0000
  Zr  Zr150     1.0  0.68967  0.64086  0.50147  1.0000
  Zr  Zr151     1.0  0.71841  0.57936  0.46386  1.0000
  Zr  Zr152     1.0  0.85634  0.47420  0.50147  1.0000
  O   O445      1.0  0.91437  0.59370  0.51291  1.0000
  O   O446      1.0  0.79831  0.35469  0.49002  1.0000
  O   O447      1.0  0.94829  0.42534  0.51187  1.0000
  O   O448      1.0  0.76439  0.52305  0.49106  1.0000
  O   O449      1.0  0.74217  0.57064  0.52015  1.0000
  O   O450      1.0  0.97052  0.37776  0.48278  1.0000
  O   O451      1.0  0.76308  0.43012  0.53614  1.0000
  O   O452      1.0  0.94960  0.51828  0.46680  1.0000
  O   O453      1.0  0.86989  0.43923  0.50186  1.0000
  O   O454      1.0  0.84279  0.50916  0.50107  1.0000
  O   O455      1.0  0.68030  0.59567  0.49561  1.0000
  O   O456      1.0  0.69905  0.35272  0.50732  1.0000
  Ca  Ca153     1.0  0.80040  0.46887  0.59734  1.0000
  Ca  Ca154     1.0  0.79735  0.39221  0.55600  1.0000
  Ca  Ca155     1.0  0.93840  0.62275  0.58952  1.0000
  Ca  Ca156     1.0  0.99269  0.57166  0.56381  1.0000
  Zr  Zr153     1.0  0.82761  0.53570  0.53907  1.0000
  Zr  Zr154     1.0  0.96554  0.43054  0.57667  1.0000
  Zr  Zr155     1.0  0.99428  0.36903  0.53907  1.0000
  Zr  Zr156     1.0  0.79888  0.59721  0.57667  1.0000
  O   O457      1.0  0.85690  0.38338  0.58811  1.0000
  O   O458      1.0  0.74085  0.47770  0.56523  1.0000
  O   O459      1.0  0.89082  0.54835  0.58707  1.0000
  O   O460      1.0  0.70693  0.64606  0.56626  1.0000
  O   O461      1.0  0.68470  0.36031  0.59535  1.0000
  O   O462      1.0  0.91305  0.50077  0.55798  1.0000
  O   O463      1.0  0.70562  0.55313  0.61134  1.0000
  O   O464      1.0  0.89214  0.64129  0.54200  1.0000
  O   O465      1.0  0.81243  0.56224  0.57706  1.0000
  O   O466      1.0  0.78533  0.63218  0.57627  1.0000
  O   O467      1.0  0.95617  0.38535  0.57081  1.0000
  O   O468      1.0  0.97492  0.47573  0.58252  1.0000
  Ca  Ca157     1.0  0.74294  0.59188  0.67254  1.0000
  Ca  Ca158     1.0  0.73989  0.51522  0.63120  1.0000
  Ca  Ca159     1.0  0.88094  0.41243  0.66472  1.0000
  Ca  Ca160     1.0  0.93522  0.36134  0.63901  1.0000
  Zr  Zr157     1.0  0.77015  0.65871  0.61427  1.0000
  Zr  Zr158     1.0  0.90808  0.55355  0.65187  1.0000
  Zr  Zr159     1.0  0.93681  0.49205  0.61427  1.0000
  Zr  Zr160     1.0  0.74141  0.38688  0.65187  1.0000
  O   O469      1.0  0.79944  0.50639  0.66331  1.0000
  O   O470      1.0  0.68339  0.60071  0.64043  1.0000
  O   O471      1.0  0.83336  0.33803  0.66227  1.0000
  O   O472      1.0  0.98280  0.43574  0.64146  1.0000
  O   O473      1.0  0.96057  0.48332  0.67055  1.0000
  O   O474      1.0  0.85559  0.62378  0.63318  1.0000
  O   O475      1.0  0.98149  0.34280  0.68654  1.0000
  O   O476      1.0  0.83468  0.43096  0.61720  1.0000
  O   O477      1.0  0.75496  0.35192  0.65226  1.0000
  O   O478      1.0  0.72786  0.42185  0.65147  1.0000
  O   O479      1.0  0.89870  0.50836  0.64601  1.0000
  O   O480      1.0  0.91746  0.59875  0.65772  1.0000
  Ca  Ca161     1.0  0.97279  0.76650  0.37173  1.0000
  Ca  Ca162     1.0  0.96974  0.68985  0.33039  1.0000
  Ca  Ca163     1.0  0.77746  0.92038  0.36392  1.0000
  Ca  Ca164     1.0  0.83174  0.86930  0.33821  1.0000
  Zr  Zr161     1.0  0.00000  0.83333  0.31346  1.0000
  Zr  Zr162     1.0  0.80460  0.72817  0.35106  1.0000
  Zr  Zr163     1.0  0.83333  0.66667  0.31346  1.0000
  Zr  Zr164     1.0  0.97127  0.89484  0.35106  1.0000
  O   O481      1.0  0.69596  0.68101  0.36250  1.0000
  O   O482      1.0  0.91324  0.77533  0.33962  1.0000
  O   O483      1.0  0.72988  0.84598  0.36147  1.0000
  O   O484      1.0  0.87932  0.94369  0.34066  1.0000
  O   O485      1.0  0.85709  0.99128  0.36975  1.0000
  O   O486      1.0  0.75211  0.79840  0.33238  1.0000
  O   O487      1.0  0.87801  0.85076  0.38573  1.0000
  O   O488      1.0  0.73120  0.93892  0.31639  1.0000
  O   O489      1.0  0.98482  0.85987  0.35146  1.0000
  O   O490      1.0  0.95772  0.92981  0.35067  1.0000
  O   O491      1.0  0.79522  0.68298  0.34521  1.0000
  O   O492      1.0  0.81398  0.77337  0.35692  1.0000
  Ca  Ca165     1.0  0.91533  0.88951  0.44693  1.0000
  Ca  Ca166     1.0  0.91228  0.81286  0.40559  1.0000
  Ca  Ca167     1.0  0.71999  0.71006  0.43912  1.0000
  Ca  Ca168     1.0  0.77428  0.99231  0.41341  1.0000
  Zr  Zr165     1.0  0.94254  0.95634  0.38866  1.0000
  Zr  Zr166     1.0  0.74714  0.85118  0.42626  1.0000
  Zr  Zr167     1.0  0.77587  0.78968  0.38866  1.0000
  Zr  Zr168     1.0  0.91380  0.68452  0.42626  1.0000
  O   O493      1.0  0.97183  0.80402  0.43771  1.0000
  O   O494      1.0  0.85578  0.89834  0.41482  1.0000
  O   O495      1.0  0.67242  0.96900  0.43667  1.0000
  O   O496      1.0  0.82186  0.73337  0.41586  1.0000
  O   O497      1.0  0.79963  0.78096  0.44495  1.0000
  O   O498      1.0  0.69465  0.92141  0.40758  1.0000
  O   O499      1.0  0.82054  0.97377  0.46093  1.0000
  O   O500      1.0  0.67373  0.72860  0.39159  1.0000
  O   O501      1.0  0.92736  0.98288  0.42666  1.0000
  O   O502      1.0  0.90025  0.71949  0.42587  1.0000
  O   O503      1.0  0.73776  0.80599  0.42041  1.0000
  O   O504      1.0  0.75652  0.89638  0.43212  1.0000
  Ca  Ca169     1.0  0.85787  0.67919  0.52214  1.0000
  Ca  Ca170     1.0  0.85482  0.93587  0.48079  1.0000
  Ca  Ca171     1.0  0.99586  0.83307  0.51432  1.0000
  Ca  Ca172     1.0  0.71682  0.78198  0.48861  1.0000
  Zr  Zr169     1.0  0.88507  0.74602  0.46386  1.0000
  Zr  Zr170     1.0  0.68967  0.97420  0.50147  1.0000
  Zr  Zr171     1.0  0.71841  0.91269  0.46386  1.0000
  Zr  Zr172     1.0  0.85634  0.80753  0.50147  1.0000
  O   O505      1.0  0.91437  0.92704  0.51291  1.0000
  O   O506      1.0  0.79831  0.68802  0.49002  1.0000
  O   O507      1.0  0.94829  0.75867  0.51187  1.0000
  O   O508      1.0  0.76439  0.85638  0.49106  1.0000
  O   O509      1.0  0.74217  0.90397  0.52015  1.0000
  O   O510      1.0  0.97052  0.71109  0.48278  1.0000
  O   O511      1.0  0.76308  0.76345  0.53614  1.0000
  O   O512      1.0  0.94960  0.85161  0.46680  1.0000
  O   O513      1.0  0.86989  0.77256  0.50186  1.0000
  O   O514      1.0  0.84279  0.84250  0.50107  1.0000
  O   O515      1.0  0.68030  0.92900  0.49561  1.0000
  O   O516      1.0  0.69905  0.68606  0.50732  1.0000
  Ca  Ca173     1.0  0.80040  0.80220  0.59734  1.0000
  Ca  Ca174     1.0  0.79735  0.72555  0.55600  1.0000
  Ca  Ca175     1.0  0.93840  0.95608  0.58952  1.0000
  Ca  Ca176     1.0  0.99269  0.90500  0.56381  1.0000
  Zr  Zr173     1.0  0.82761  0.86903  0.53907  1.0000
  Zr  Zr174     1.0  0.96554  0.76387  0.57667  1.0000
  Zr  Zr175     1.0  0.99428  0.70237  0.53907  1.0000
  Zr  Zr176     1.0  0.79888  0.93054  0.57667  1.0000
  O   O517      1.0  0.85690  0.71671  0.58811  1.0000
  O   O518      1.0  0.74085  0.81103  0.56523  1.0000
  O   O519      1.0  0.89082  0.88168  0.58707  1.0000
  O   O520      1.0  0.70693  0.97940  0.56626  1.0000
  O   O521      1.0  0.68470  0.69365  0.59535  1.0000
  O   O522      1.0  0.91305  0.83410  0.55798  1.0000
  O   O523      1.0  0.70562  0.88646  0.61134  1.0000
  O   O524      1.0  0.89214  0.97462  0.54200  1.0000
  O   O525      1.0  0.81243  0.89557  0.57706  1.0000
  O   O526      1.0  0.78533  0.96551  0.57627  1.0000
  O   O527      1.0  0.95617  0.71868  0.57081  1.0000
  O   O528      1.0  0.97492  0.80907  0.58252  1.0000
  Ca  Ca177     1.0  0.74294  0.92521  0.67254  1.0000
  Ca  Ca178     1.0  0.73989  0.84856  0.63120  1.0000
  Ca  Ca179     1.0  0.88094  0.74576  0.66472  1.0000
  Ca  Ca180     1.0  0.93522  0.69467  0.63901  1.0000
  Zr  Zr177     1.0  0.77015  0.99205  0.61427  1.0000
  Zr  Zr178     1.0  0.90808  0.88688  0.65187  1.0000
  Zr  Zr179     1.0  0.93681  0.82538  0.61427  1.0000
  Zr  Zr180     1.0  0.74141  0.72022  0.65187  1.0000
  O   O529      1.0  0.79944  0.83973  0.66331  1.0000
  O   O530      1.0  0.68339  0.93404  0.64043  1.0000
  O   O531      1.0  0.83336  0.67136  0.66227  1.0000
  O   O532      1.0  0.98280  0.76907  0.64146  1.0000
  O   O533      1.0  0.96057  0.81666  0.67055  1.0000
  O   O534      1.0  0.85559  0.95711  0.63318  1.0000
  O   O535      1.0  0.98149  0.67614  0.68654  1.0000
  O   O536      1.0  0.83468  0.76430  0.61720  1.0000
  O   O537      1.0  0.75496  0.68525  0.65226  1.0000
  O   O538      1.0  0.72786  0.75519  0.65147  1.0000
  O   O539      1.0  0.89870  0.84169  0.64601  1.0000
  O   O540      1.0  0.91746  0.93208  0.65772  1.0000
