data_image0
_chemical_formula_structural       Ca4Zr4O12Ca4Zr4O12Ca4Zr4O12Ca4Zr4O12Ca4Zr4O12Ca4Zr4O12Ca4Zr4O12Ca4Zr4O12Ca4Zr4O12Ca4Zr4O12Ca4Zr4O12Ca4Zr4O12Ca4Zr4O12Ca4Zr4O12Ca4Zr4O12Ca4Zr4O12Ca4Zr4O12Ca4Zr4O12Ca4Zr4O12Ca4Zr4O12Ca4Zr4O12Ca4Zr4O12Ca4Zr4O12Ca4Zr4O12Ca4Zr4O12Ca4Zr4O12Ca4Zr4O12Ca4Zr4O12Ca4Zr4O12Ca4Zr4O12Ca4Zr4O12Ca4Zr4O12Ca4Zr4O12Ca4Zr4O12Ca4Zr4O12Ca4Zr4O12Ca4Zr4O12Ca4Zr4O12Ca4Zr4O12Ca4Zr4O12Ca4Zr4O12Ca4Zr4O12Ca4Zr4O12Ca4Zr4O12Ca4Zr4O12Ca4Zr4O12Ca4Zr4O12Ca4Zr4O12Ca4Zr4O12Ca4Zr4O12Ca4Zr4O12Ca4Zr4O12Ca4Zr4O12Ca4Zr4O12Ca4Zr4O12Ca4Zr4O12Ca4Zr4O12Ca4Zr4O12Ca4Zr4O12Ca4Zr4O12Ca4Zr4O12Ca4Zr4O12Ca4Zr4O12Ca4Zr4O12Ca4Zr4O12Ca4Zr4O12Ca4Zr4O12Ca4Zr4O12Ca4Zr4O12Ca4Zr4O12Ca4Zr4O12Ca4Zr4O12Ca4Zr4O12Ca4Zr4O12Ca4Zr4O12Ca4Zr4O12Ca4Zr4O12Ca4Zr4O12Ca4Zr4O12Ca4Zr4O12Ca4Zr4O12Ca4Zr4O12Ca4Zr4O12Ca4Zr4O12Ca4Zr4O12Ca4Zr4O12Ca4Zr4O12Ca4Zr4O12Ca4Zr4O12Ca4Zr4O12Ca4Zr4O12Ca4Zr4O12Ca4Zr4O12Ca4Zr4O12Ca4Zr4O12Ca4Zr4O12Ca4Zr4O12Ca4Zr4O12Ca4Zr4O12Ca4Zr4O12COH5
_chemical_formula_sum              "Ca400 Zr400 O1201 C1 H5"
_cell_length_a       40.0869
_cell_length_b       27.925
_cell_length_c       42.8723
_cell_angle_alpha    90
_cell_angle_beta     90
_cell_angle_gamma    90

_space_group_name_H-M_alt    "P 1"
_space_group_IT_number       1

loop_
  _space_group_symop_operation_xyz
  'x, y, z'

loop_
  _atom_site_type_symbol
  _atom_site_label
  _atom_site_symmetry_multiplicity
  _atom_site_fract_x
  _atom_site_fract_y
  _atom_site_fract_z
  _atom_site_occupancy
  Ca  Ca1       1.0  0.15000  0.19729  0.24025  1.0000
  Ca  Ca2       1.0  0.05000  0.00271  0.36102  1.0000
  Ca  Ca3       1.0  0.05000  0.09729  0.29364  1.0000
  Ca  Ca4       1.0  0.15000  0.10271  0.30764  1.0000
  Zr  Zr1       1.0  0.00000  0.10000  0.23325  1.0000
  Zr  Zr2       1.0  0.00000  0.00000  0.30064  1.0000
  Zr  Zr3       1.0  0.10000  0.00000  0.30064  1.0000
  Zr  Zr4       1.0  0.10000  0.10000  0.23325  1.0000
  O   O1        1.0  0.01132  0.03953  0.26025  1.0000
  O   O2        1.0  0.18868  0.16047  0.34103  1.0000
  O   O3        1.0  0.18868  0.13953  0.27364  1.0000
  O   O4        1.0  0.01132  0.06047  0.32763  1.0000
  O   O5        1.0  0.08868  0.06047  0.32763  1.0000
  O   O6        1.0  0.11132  0.13953  0.27364  1.0000
  O   O7        1.0  0.11132  0.16047  0.34103  1.0000
  O   O8        1.0  0.08868  0.03953  0.26025  1.0000
  O   O9        1.0  0.05000  0.12137  0.23885  1.0000
  O   O10       1.0  0.15000  0.07863  0.36242  1.0000
  O   O11       1.0  0.15000  0.02137  0.29504  1.0000
  O   O12       1.0  0.05000  0.17863  0.30624  1.0000
  Ca  Ca5       1.0  0.15000  0.19729  0.37503  1.0000
  Ca  Ca6       1.0  0.05000  0.00271  0.49580  1.0000
  Ca  Ca7       1.0  0.05000  0.09729  0.42841  1.0000
  Ca  Ca8       1.0  0.15000  0.10271  0.44242  1.0000
  Zr  Zr5       1.0  0.00000  0.10000  0.36803  1.0000
  Zr  Zr6       1.0  0.00000  0.00000  0.43541  1.0000
  Zr  Zr7       1.0  0.10000  0.00000  0.43541  1.0000
  Zr  Zr8       1.0  0.10000  0.10000  0.36803  1.0000
  O   O13       1.0  0.01132  0.03953  0.39502  1.0000
  O   O14       1.0  0.18868  0.16047  0.47580  1.0000
  O   O15       1.0  0.18868  0.13953  0.40842  1.0000
  O   O16       1.0  0.01132  0.06047  0.46241  1.0000
  O   O17       1.0  0.08868  0.06047  0.46241  1.0000
  O   O18       1.0  0.11132  0.13953  0.40842  1.0000
  O   O19       1.0  0.11132  0.16047  0.47580  1.0000
  O   O20       1.0  0.08868  0.03953  0.39502  1.0000
  O   O21       1.0  0.05000  0.12137  0.37363  1.0000
  O   O22       1.0  0.15000  0.07863  0.49720  1.0000
  O   O23       1.0  0.15000  0.02137  0.42981  1.0000
  O   O24       1.0  0.05000  0.17863  0.44101  1.0000
  Ca  Ca9       1.0  0.15000  0.19729  0.50980  1.0000
  Ca  Ca10      1.0  0.05000  0.00271  0.63057  1.0000
  Ca  Ca11      1.0  0.05000  0.09729  0.56319  1.0000
  Ca  Ca12      1.0  0.15000  0.10271  0.57719  1.0000
  Zr  Zr9       1.0  0.00000  0.10000  0.50280  1.0000
  Zr  Zr10      1.0  0.00000  0.00000  0.57019  1.0000
  Zr  Zr11      1.0  0.10000  0.00000  0.57019  1.0000
  Zr  Zr12      1.0  0.10000  0.10000  0.50280  1.0000
  O   O25       1.0  0.01132  0.03953  0.52980  1.0000
  O   O26       1.0  0.18868  0.16047  0.61058  1.0000
  O   O27       1.0  0.18868  0.13953  0.54319  1.0000
  O   O28       1.0  0.01132  0.06047  0.59718  1.0000
  O   O29       1.0  0.08868  0.06047  0.59718  1.0000
  O   O30       1.0  0.11132  0.13953  0.54319  1.0000
  O   O31       1.0  0.11132  0.16047  0.61058  1.0000
  O   O32       1.0  0.08868  0.03953  0.52980  1.0000
  O   O33       1.0  0.05000  0.12137  0.50840  1.0000
  O   O34       1.0  0.15000  0.07863  0.63197  1.0000
  O   O35       1.0  0.15000  0.02137  0.56459  1.0000
  O   O36       1.0  0.05000  0.17863  0.57579  1.0000
  Ca  Ca13      1.0  0.15000  0.19729  0.64458  1.0000
  Ca  Ca14      1.0  0.05000  0.00271  0.76535  1.0000
  Ca  Ca15      1.0  0.05000  0.09729  0.69796  1.0000
  Ca  Ca16      1.0  0.15000  0.10271  0.71197  1.0000
  Zr  Zr13      1.0  0.00000  0.10000  0.63758  1.0000
  Zr  Zr14      1.0  0.00000  0.00000  0.70496  1.0000
  Zr  Zr15      1.0  0.10000  0.00000  0.70496  1.0000
  Zr  Zr16      1.0  0.10000  0.10000  0.63758  1.0000
  O   O37       1.0  0.01132  0.03953  0.66457  1.0000
  O   O38       1.0  0.18868  0.16047  0.74535  1.0000
  O   O39       1.0  0.18868  0.13953  0.67797  1.0000
  O   O40       1.0  0.01132  0.06047  0.73196  1.0000
  O   O41       1.0  0.08868  0.06047  0.73196  1.0000
  O   O42       1.0  0.11132  0.13953  0.67797  1.0000
  O   O43       1.0  0.11132  0.16047  0.74535  1.0000
  O   O44       1.0  0.08868  0.03953  0.66457  1.0000
  O   O45       1.0  0.05000  0.12137  0.64318  1.0000
  O   O46       1.0  0.15000  0.07863  0.76675  1.0000
  O   O47       1.0  0.15000  0.02137  0.69936  1.0000
  O   O48       1.0  0.05000  0.17863  0.71056  1.0000
  Ca  Ca17      1.0  0.15000  0.39729  0.24025  1.0000
  Ca  Ca18      1.0  0.05000  0.20271  0.36102  1.0000
  Ca  Ca19      1.0  0.05000  0.29729  0.29364  1.0000
  Ca  Ca20      1.0  0.15000  0.30271  0.30764  1.0000
  Zr  Zr17      1.0  0.00000  0.30000  0.23325  1.0000
  Zr  Zr18      1.0  0.00000  0.20000  0.30064  1.0000
  Zr  Zr19      1.0  0.10000  0.20000  0.30064  1.0000
  Zr  Zr20      1.0  0.10000  0.30000  0.23325  1.0000
  O   O49       1.0  0.01132  0.23953  0.26025  1.0000
  O   O50       1.0  0.18868  0.36047  0.34103  1.0000
  O   O51       1.0  0.18868  0.33953  0.27364  1.0000
  O   O52       1.0  0.01132  0.26047  0.32763  1.0000
  O   O53       1.0  0.08868  0.26047  0.32763  1.0000
  O   O54       1.0  0.11132  0.33953  0.27364  1.0000
  O   O55       1.0  0.11132  0.36047  0.34103  1.0000
  O   O56       1.0  0.08868  0.23953  0.26025  1.0000
  O   O57       1.0  0.05000  0.32137  0.23885  1.0000
  O   O58       1.0  0.15000  0.27863  0.36242  1.0000
  O   O59       1.0  0.15000  0.22137  0.29504  1.0000
  O   O60       1.0  0.05000  0.37863  0.30624  1.0000
  Ca  Ca21      1.0  0.15000  0.39729  0.37503  1.0000
  Ca  Ca22      1.0  0.05000  0.20271  0.49580  1.0000
  Ca  Ca23      1.0  0.05000  0.29729  0.42841  1.0000
  Ca  Ca24      1.0  0.15000  0.30271  0.44242  1.0000
  Zr  Zr21      1.0  0.00000  0.30000  0.36803  1.0000
  Zr  Zr22      1.0  0.00000  0.20000  0.43541  1.0000
  Zr  Zr23      1.0  0.10000  0.20000  0.43541  1.0000
  Zr  Zr24      1.0  0.10000  0.30000  0.36803  1.0000
  O   O61       1.0  0.01132  0.23953  0.39502  1.0000
  O   O62       1.0  0.18868  0.36047  0.47580  1.0000
  O   O63       1.0  0.18868  0.33953  0.40842  1.0000
  O   O64       1.0  0.01132  0.26047  0.46241  1.0000
  O   O65       1.0  0.08868  0.26047  0.46241  1.0000
  O   O66       1.0  0.11132  0.33953  0.40842  1.0000
  O   O67       1.0  0.11132  0.36047  0.47580  1.0000
  O   O68       1.0  0.08868  0.23953  0.39502  1.0000
  O   O69       1.0  0.05000  0.32137  0.37363  1.0000
  O   O70       1.0  0.15000  0.27863  0.49720  1.0000
  O   O71       1.0  0.15000  0.22137  0.42981  1.0000
  O   O72       1.0  0.05000  0.37863  0.44101  1.0000
  Ca  Ca25      1.0  0.15000  0.39729  0.50980  1.0000
  Ca  Ca26      1.0  0.05000  0.20271  0.63057  1.0000
  Ca  Ca27      1.0  0.05000  0.29729  0.56319  1.0000
  Ca  Ca28      1.0  0.15000  0.30271  0.57719  1.0000
  Zr  Zr25      1.0  0.00000  0.30000  0.50280  1.0000
  Zr  Zr26      1.0  0.00000  0.20000  0.57019  1.0000
  Zr  Zr27      1.0  0.10000  0.20000  0.57019  1.0000
  Zr  Zr28      1.0  0.10000  0.30000  0.50280  1.0000
  O   O73       1.0  0.01132  0.23953  0.52980  1.0000
  O   O74       1.0  0.18868  0.36047  0.61058  1.0000
  O   O75       1.0  0.18868  0.33953  0.54319  1.0000
  O   O76       1.0  0.01132  0.26047  0.59718  1.0000
  O   O77       1.0  0.08868  0.26047  0.59718  1.0000
  O   O78       1.0  0.11132  0.33953  0.54319  1.0000
  O   O79       1.0  0.11132  0.36047  0.61058  1.0000
  O   O80       1.0  0.08868  0.23953  0.52980  1.0000
  O   O81       1.0  0.05000  0.32137  0.50840  1.0000
  O   O82       1.0  0.15000  0.27863  0.63197  1.0000
  O   O83       1.0  0.15000  0.22137  0.56459  1.0000
  O   O84       1.0  0.05000  0.37863  0.57579  1.0000
  Ca  Ca29      1.0  0.15000  0.39729  0.64458  1.0000
  Ca  Ca30      1.0  0.05000  0.20271  0.76535  1.0000
  Ca  Ca31      1.0  0.05000  0.29729  0.69796  1.0000
  Ca  Ca32      1.0  0.15000  0.30271  0.71197  1.0000
  Zr  Zr29      1.0  0.00000  0.30000  0.63758  1.0000
  Zr  Zr30      1.0  0.00000  0.20000  0.70496  1.0000
  Zr  Zr31      1.0  0.10000  0.20000  0.70496  1.0000
  Zr  Zr32      1.0  0.10000  0.30000  0.63758  1.0000
  O   O85       1.0  0.01132  0.23953  0.66457  1.0000
  O   O86       1.0  0.18868  0.36047  0.74535  1.0000
  O   O87       1.0  0.18868  0.33953  0.67797  1.0000
  O   O88       1.0  0.01132  0.26047  0.73196  1.0000
  O   O89       1.0  0.08868  0.26047  0.73196  1.0000
  O   O90       1.0  0.11132  0.33953  0.67797  1.0000
  O   O91       1.0  0.11132  0.36047  0.74535  1.0000
  O   O92       1.0  0.08868  0.23953  0.66457  1.0000
  O   O93       1.0  0.05000  0.32137  0.64318  1.0000
  O   O94       1.0  0.15000  0.27863  0.76675  1.0000
  O   O95       1.0  0.15000  0.22137  0.69936  1.0000
  O   O96       1.0  0.05000  0.37863  0.71056  1.0000
  Ca  Ca33      1.0  0.15000  0.59729  0.24025  1.0000
  Ca  Ca34      1.0  0.05000  0.40271  0.36102  1.0000
  Ca  Ca35      1.0  0.05000  0.49729  0.29364  1.0000
  Ca  Ca36      1.0  0.15000  0.50271  0.30764  1.0000
  Zr  Zr33      1.0  0.00000  0.50000  0.23325  1.0000
  Zr  Zr34      1.0  0.00000  0.40000  0.30064  1.0000
  Zr  Zr35      1.0  0.10000  0.40000  0.30064  1.0000
  Zr  Zr36      1.0  0.10000  0.50000  0.23325  1.0000
  O   O97       1.0  0.01132  0.43953  0.26025  1.0000
  O   O98       1.0  0.18868  0.56047  0.34103  1.0000
  O   O99       1.0  0.18868  0.53953  0.27364  1.0000
  O   O100      1.0  0.01132  0.46047  0.32763  1.0000
  O   O101      1.0  0.08868  0.46047  0.32763  1.0000
  O   O102      1.0  0.11132  0.53953  0.27364  1.0000
  O   O103      1.0  0.11132  0.56047  0.34103  1.0000
  O   O104      1.0  0.08868  0.43953  0.26025  1.0000
  O   O105      1.0  0.05000  0.52137  0.23885  1.0000
  O   O106      1.0  0.15000  0.47863  0.36242  1.0000
  O   O107      1.0  0.15000  0.42137  0.29504  1.0000
  O   O108      1.0  0.05000  0.57863  0.30624  1.0000
  Ca  Ca37      1.0  0.15000  0.59729  0.37503  1.0000
  Ca  Ca38      1.0  0.05000  0.40271  0.49580  1.0000
  Ca  Ca39      1.0  0.05000  0.49729  0.42841  1.0000
  Ca  Ca40      1.0  0.15000  0.50271  0.44242  1.0000
  Zr  Zr37      1.0  0.00000  0.50000  0.36803  1.0000
  Zr  Zr38      1.0  0.00000  0.40000  0.43541  1.0000
  Zr  Zr39      1.0  0.10000  0.40000  0.43541  1.0000
  Zr  Zr40      1.0  0.10000  0.50000  0.36803  1.0000
  O   O109      1.0  0.01132  0.43953  0.39502  1.0000
  O   O110      1.0  0.18868  0.56047  0.47580  1.0000
  O   O111      1.0  0.18868  0.53953  0.40842  1.0000
  O   O112      1.0  0.01132  0.46047  0.46241  1.0000
  O   O113      1.0  0.08868  0.46047  0.46241  1.0000
  O   O114      1.0  0.11132  0.53953  0.40842  1.0000
  O   O115      1.0  0.11132  0.56047  0.47580  1.0000
  O   O116      1.0  0.08868  0.43953  0.39502  1.0000
  O   O117      1.0  0.05000  0.52137  0.37363  1.0000
  O   O118      1.0  0.15000  0.47863  0.49720  1.0000
  O   O119      1.0  0.15000  0.42137  0.42981  1.0000
  O   O120      1.0  0.05000  0.57863  0.44101  1.0000
  Ca  Ca41      1.0  0.15000  0.59729  0.50980  1.0000
  Ca  Ca42      1.0  0.05000  0.40271  0.63057  1.0000
  Ca  Ca43      1.0  0.05000  0.49729  0.56319  1.0000
  Ca  Ca44      1.0  0.15000  0.50271  0.57719  1.0000
  Zr  Zr41      1.0  0.00000  0.50000  0.50280  1.0000
  Zr  Zr42      1.0  0.00000  0.40000  0.57019  1.0000
  Zr  Zr43      1.0  0.10000  0.40000  0.57019  1.0000
  Zr  Zr44      1.0  0.10000  0.50000  0.50280  1.0000
  O   O121      1.0  0.01132  0.43953  0.52980  1.0000
  O   O122      1.0  0.18868  0.56047  0.61058  1.0000
  O   O123      1.0  0.18868  0.53953  0.54319  1.0000
  O   O124      1.0  0.01132  0.46047  0.59718  1.0000
  O   O125      1.0  0.08868  0.46047  0.59718  1.0000
  O   O126      1.0  0.11132  0.53953  0.54319  1.0000
  O   O127      1.0  0.11132  0.56047  0.61058  1.0000
  O   O128      1.0  0.08868  0.43953  0.52980  1.0000
  O   O129      1.0  0.05000  0.52137  0.50840  1.0000
  O   O130      1.0  0.15000  0.47863  0.63197  1.0000
  O   O131      1.0  0.15000  0.42137  0.56459  1.0000
  O   O132      1.0  0.05000  0.57863  0.57579  1.0000
  Ca  Ca45      1.0  0.15000  0.59729  0.64458  1.0000
  Ca  Ca46      1.0  0.05000  0.40271  0.76535  1.0000
  Ca  Ca47      1.0  0.05000  0.49729  0.69796  1.0000
  Ca  Ca48      1.0  0.15000  0.50271  0.71197  1.0000
  Zr  Zr45      1.0  0.00000  0.50000  0.63758  1.0000
  Zr  Zr46      1.0  0.00000  0.40000  0.70496  1.0000
  Zr  Zr47      1.0  0.10000  0.40000  0.70496  1.0000
  Zr  Zr48      1.0  0.10000  0.50000  0.63758  1.0000
  O   O133      1.0  0.01132  0.43953  0.66457  1.0000
  O   O134      1.0  0.18868  0.56047  0.74535  1.0000
  O   O135      1.0  0.18868  0.53953  0.67797  1.0000
  O   O136      1.0  0.01132  0.46047  0.73196  1.0000
  O   O137      1.0  0.08868  0.46047  0.73196  1.0000
  O   O138      1.0  0.11132  0.53953  0.67797  1.0000
  O   O139      1.0  0.11132  0.56047  0.74535  1.0000
  O   O140      1.0  0.08868  0.43953  0.66457  1.0000
  O   O141      1.0  0.05000  0.52137  0.64318  1.0000
  O   O142      1.0  0.15000  0.47863  0.76675  1.0000
  O   O143      1.0  0.15000  0.42137  0.69936  1.0000
  O   O144      1.0  0.05000  0.57863  0.71056  1.0000
  Ca  Ca49      1.0  0.15000  0.79729  0.24025  1.0000
  Ca  Ca50      1.0  0.05000  0.60271  0.36102  1.0000
  Ca  Ca51      1.0  0.05000  0.69729  0.29364  1.0000
  Ca  Ca52      1.0  0.15000  0.70271  0.30764  1.0000
  Zr  Zr49      1.0  0.00000  0.70000  0.23325  1.0000
  Zr  Zr50      1.0  0.00000  0.60000  0.30064  1.0000
  Zr  Zr51      1.0  0.10000  0.60000  0.30064  1.0000
  Zr  Zr52      1.0  0.10000  0.70000  0.23325  1.0000
  O   O145      1.0  0.01132  0.63953  0.26025  1.0000
  O   O146      1.0  0.18868  0.76047  0.34103  1.0000
  O   O147      1.0  0.18868  0.73953  0.27364  1.0000
  O   O148      1.0  0.01132  0.66047  0.32763  1.0000
  O   O149      1.0  0.08868  0.66047  0.32763  1.0000
  O   O150      1.0  0.11132  0.73953  0.27364  1.0000
  O   O151      1.0  0.11132  0.76047  0.34103  1.0000
  O   O152      1.0  0.08868  0.63953  0.26025  1.0000
  O   O153      1.0  0.05000  0.72137  0.23885  1.0000
  O   O154      1.0  0.15000  0.67863  0.36242  1.0000
  O   O155      1.0  0.15000  0.62137  0.29504  1.0000
  O   O156      1.0  0.05000  0.77863  0.30624  1.0000
  Ca  Ca53      1.0  0.15000  0.79729  0.37503  1.0000
  Ca  Ca54      1.0  0.05000  0.60271  0.49580  1.0000
  Ca  Ca55      1.0  0.05000  0.69729  0.42841  1.0000
  Ca  Ca56      1.0  0.15000  0.70271  0.44242  1.0000
  Zr  Zr53      1.0  0.00000  0.70000  0.36803  1.0000
  Zr  Zr54      1.0  0.00000  0.60000  0.43541  1.0000
  Zr  Zr55      1.0  0.10000  0.60000  0.43541  1.0000
  Zr  Zr56      1.0  0.10000  0.70000  0.36803  1.0000
  O   O157      1.0  0.01132  0.63953  0.39502  1.0000
  O   O158      1.0  0.18868  0.76047  0.47580  1.0000
  O   O159      1.0  0.18868  0.73953  0.40842  1.0000
  O   O160      1.0  0.01132  0.66047  0.46241  1.0000
  O   O161      1.0  0.08868  0.66047  0.46241  1.0000
  O   O162      1.0  0.11132  0.73953  0.40842  1.0000
  O   O163      1.0  0.11132  0.76047  0.47580  1.0000
  O   O164      1.0  0.08868  0.63953  0.39502  1.0000
  O   O165      1.0  0.05000  0.72137  0.37363  1.0000
  O   O166      1.0  0.15000  0.67863  0.49720  1.0000
  O   O167      1.0  0.15000  0.62137  0.42981  1.0000
  O   O168      1.0  0.05000  0.77863  0.44101  1.0000
  Ca  Ca57      1.0  0.15000  0.79729  0.50980  1.0000
  Ca  Ca58      1.0  0.05000  0.60271  0.63057  1.0000
  Ca  Ca59      1.0  0.05000  0.69729  0.56319  1.0000
  Ca  Ca60      1.0  0.15000  0.70271  0.57719  1.0000
  Zr  Zr57      1.0  0.00000  0.70000  0.50280  1.0000
  Zr  Zr58      1.0  0.00000  0.60000  0.57019  1.0000
  Zr  Zr59      1.0  0.10000  0.60000  0.57019  1.0000
  Zr  Zr60      1.0  0.10000  0.70000  0.50280  1.0000
  O   O169      1.0  0.01132  0.63953  0.52980  1.0000
  O   O170      1.0  0.18868  0.76047  0.61058  1.0000
  O   O171      1.0  0.18868  0.73953  0.54319  1.0000
  O   O172      1.0  0.01132  0.66047  0.59718  1.0000
  O   O173      1.0  0.08868  0.66047  0.59718  1.0000
  O   O174      1.0  0.11132  0.73953  0.54319  1.0000
  O   O175      1.0  0.11132  0.76047  0.61058  1.0000
  O   O176      1.0  0.08868  0.63953  0.52980  1.0000
  O   O177      1.0  0.05000  0.72137  0.50840  1.0000
  O   O178      1.0  0.15000  0.67863  0.63197  1.0000
  O   O179      1.0  0.15000  0.62137  0.56459  1.0000
  O   O180      1.0  0.05000  0.77863  0.57579  1.0000
  Ca  Ca61      1.0  0.15000  0.79729  0.64458  1.0000
  Ca  Ca62      1.0  0.05000  0.60271  0.76535  1.0000
  Ca  Ca63      1.0  0.05000  0.69729  0.69796  1.0000
  Ca  Ca64      1.0  0.15000  0.70271  0.71197  1.0000
  Zr  Zr61      1.0  0.00000  0.70000  0.63758  1.0000
  Zr  Zr62      1.0  0.00000  0.60000  0.70496  1.0000
  Zr  Zr63      1.0  0.10000  0.60000  0.70496  1.0000
  Zr  Zr64      1.0  0.10000  0.70000  0.63758  1.0000
  O   O181      1.0  0.01132  0.63953  0.66457  1.0000
  O   O182      1.0  0.18868  0.76047  0.74535  1.0000
  O   O183      1.0  0.18868  0.73953  0.67797  1.0000
  O   O184      1.0  0.01132  0.66047  0.73196  1.0000
  O   O185      1.0  0.08868  0.66047  0.73196  1.0000
  O   O186      1.0  0.11132  0.73953  0.67797  1.0000
  O   O187      1.0  0.11132  0.76047  0.74535  1.0000
  O   O188      1.0  0.08868  0.63953  0.66457  1.0000
  O   O189      1.0  0.05000  0.72137  0.64318  1.0000
  O   O190      1.0  0.15000  0.67863  0.76675  1.0000
  O   O191      1.0  0.15000  0.62137  0.69936  1.0000
  O   O192      1.0  0.05000  0.77863  0.71056  1.0000
  Ca  Ca65      1.0  0.15000  0.99729  0.24025  1.0000
  Ca  Ca66      1.0  0.05000  0.80271  0.36102  1.0000
  Ca  Ca67      1.0  0.05000  0.89729  0.29364  1.0000
  Ca  Ca68      1.0  0.15000  0.90271  0.30764  1.0000
  Zr  Zr65      1.0  0.00000  0.90000  0.23325  1.0000
  Zr  Zr66      1.0  0.00000  0.80000  0.30064  1.0000
  Zr  Zr67      1.0  0.10000  0.80000  0.30064  1.0000
  Zr  Zr68      1.0  0.10000  0.90000  0.23325  1.0000
  O   O193      1.0  0.01132  0.83953  0.26025  1.0000
  O   O194      1.0  0.18868  0.96047  0.34103  1.0000
  O   O195      1.0  0.18868  0.93953  0.27364  1.0000
  O   O196      1.0  0.01132  0.86047  0.32763  1.0000
  O   O197      1.0  0.08868  0.86047  0.32763  1.0000
  O   O198      1.0  0.11132  0.93953  0.27364  1.0000
  O   O199      1.0  0.11132  0.96047  0.34103  1.0000
  O   O200      1.0  0.08868  0.83953  0.26025  1.0000
  O   O201      1.0  0.05000  0.92137  0.23885  1.0000
  O   O202      1.0  0.15000  0.87863  0.36242  1.0000
  O   O203      1.0  0.15000  0.82137  0.29504  1.0000
  O   O204      1.0  0.05000  0.97863  0.30624  1.0000
  Ca  Ca69      1.0  0.15000  0.99729  0.37503  1.0000
  Ca  Ca70      1.0  0.05000  0.80271  0.49580  1.0000
  Ca  Ca71      1.0  0.05000  0.89729  0.42841  1.0000
  Ca  Ca72      1.0  0.15000  0.90271  0.44242  1.0000
  Zr  Zr69      1.0  0.00000  0.90000  0.36803  1.0000
  Zr  Zr70      1.0  0.00000  0.80000  0.43541  1.0000
  Zr  Zr71      1.0  0.10000  0.80000  0.43541  1.0000
  Zr  Zr72      1.0  0.10000  0.90000  0.36803  1.0000
  O   O205      1.0  0.01132  0.83953  0.39502  1.0000
  O   O206      1.0  0.18868  0.96047  0.47580  1.0000
  O   O207      1.0  0.18868  0.93953  0.40842  1.0000
  O   O208      1.0  0.01132  0.86047  0.46241  1.0000
  O   O209      1.0  0.08868  0.86047  0.46241  1.0000
  O   O210      1.0  0.11132  0.93953  0.40842  1.0000
  O   O211      1.0  0.11132  0.96047  0.47580  1.0000
  O   O212      1.0  0.08868  0.83953  0.39502  1.0000
  O   O213      1.0  0.05000  0.92137  0.37363  1.0000
  O   O214      1.0  0.15000  0.87863  0.49720  1.0000
  O   O215      1.0  0.15000  0.82137  0.42981  1.0000
  O   O216      1.0  0.05000  0.97863  0.44101  1.0000
  Ca  Ca73      1.0  0.15000  0.99729  0.50980  1.0000
  Ca  Ca74      1.0  0.05000  0.80271  0.63057  1.0000
  Ca  Ca75      1.0  0.05000  0.89729  0.56319  1.0000
  Ca  Ca76      1.0  0.15000  0.90271  0.57719  1.0000
  Zr  Zr73      1.0  0.00000  0.90000  0.50280  1.0000
  Zr  Zr74      1.0  0.00000  0.80000  0.57019  1.0000
  Zr  Zr75      1.0  0.10000  0.80000  0.57019  1.0000
  Zr  Zr76      1.0  0.10000  0.90000  0.50280  1.0000
  O   O217      1.0  0.01132  0.83953  0.52980  1.0000
  O   O218      1.0  0.18868  0.96047  0.61058  1.0000
  O   O219      1.0  0.18868  0.93953  0.54319  1.0000
  O   O220      1.0  0.01132  0.86047  0.59718  1.0000
  O   O221      1.0  0.08868  0.86047  0.59718  1.0000
  O   O222      1.0  0.11132  0.93953  0.54319  1.0000
  O   O223      1.0  0.11132  0.96047  0.61058  1.0000
  O   O224      1.0  0.08868  0.83953  0.52980  1.0000
  O   O225      1.0  0.05000  0.92137  0.50840  1.0000
  O   O226      1.0  0.15000  0.87863  0.63197  1.0000
  O   O227      1.0  0.15000  0.82137  0.56459  1.0000
  O   O228      1.0  0.05000  0.97863  0.57579  1.0000
  Ca  Ca77      1.0  0.15000  0.99729  0.64458  1.0000
  Ca  Ca78      1.0  0.05000  0.80271  0.76535  1.0000
  Ca  Ca79      1.0  0.05000  0.89729  0.69796  1.0000
  Ca  Ca80      1.0  0.15000  0.90271  0.71197  1.0000
  Zr  Zr77      1.0  0.00000  0.90000  0.63758  1.0000
  Zr  Zr78      1.0  0.00000  0.80000  0.70496  1.0000
  Zr  Zr79      1.0  0.10000  0.80000  0.70496  1.0000
  Zr  Zr80      1.0  0.10000  0.90000  0.63758  1.0000
  O   O229      1.0  0.01132  0.83953  0.66457  1.0000
  O   O230      1.0  0.18868  0.96047  0.74535  1.0000
  O   O231      1.0  0.18868  0.93953  0.67797  1.0000
  O   O232      1.0  0.01132  0.86047  0.73196  1.0000
  O   O233      1.0  0.08868  0.86047  0.73196  1.0000
  O   O234      1.0  0.11132  0.93953  0.67797  1.0000
  O   O235      1.0  0.11132  0.96047  0.74535  1.0000
  O   O236      1.0  0.08868  0.83953  0.66457  1.0000
  O   O237      1.0  0.05000  0.92137  0.64318  1.0000
  O   O238      1.0  0.15000  0.87863  0.76675  1.0000
  O   O239      1.0  0.15000  0.82137  0.69936  1.0000
  O   O240      1.0  0.05000  0.97863  0.71056  1.0000
  Ca  Ca81      1.0  0.35000  0.19729  0.24025  1.0000
  Ca  Ca82      1.0  0.25000  0.00271  0.36102  1.0000
  Ca  Ca83      1.0  0.25000  0.09729  0.29364  1.0000
  Ca  Ca84      1.0  0.35000  0.10271  0.30764  1.0000
  Zr  Zr81      1.0  0.20000  0.10000  0.23325  1.0000
  Zr  Zr82      1.0  0.20000  0.00000  0.30064  1.0000
  Zr  Zr83      1.0  0.30000  0.00000  0.30064  1.0000
  Zr  Zr84      1.0  0.30000  0.10000  0.23325  1.0000
  O   O241      1.0  0.21132  0.03953  0.26025  1.0000
  O   O242      1.0  0.38868  0.16047  0.34103  1.0000
  O   O243      1.0  0.38868  0.13953  0.27364  1.0000
  O   O244      1.0  0.21132  0.06047  0.32763  1.0000
  O   O245      1.0  0.28868  0.06047  0.32763  1.0000
  O   O246      1.0  0.31132  0.13953  0.27364  1.0000
  O   O247      1.0  0.31132  0.16047  0.34103  1.0000
  O   O248      1.0  0.28868  0.03953  0.26025  1.0000
  O   O249      1.0  0.25000  0.12137  0.23885  1.0000
  O   O250      1.0  0.35000  0.07863  0.36242  1.0000
  O   O251      1.0  0.35000  0.02137  0.29504  1.0000
  O   O252      1.0  0.25000  0.17863  0.30624  1.0000
  Ca  Ca85      1.0  0.35000  0.19729  0.37503  1.0000
  Ca  Ca86      1.0  0.25000  0.00271  0.49580  1.0000
  Ca  Ca87      1.0  0.25000  0.09729  0.42841  1.0000
  Ca  Ca88      1.0  0.35000  0.10271  0.44242  1.0000
  Zr  Zr85      1.0  0.20000  0.10000  0.36803  1.0000
  Zr  Zr86      1.0  0.20000  0.00000  0.43541  1.0000
  Zr  Zr87      1.0  0.30000  0.00000  0.43541  1.0000
  Zr  Zr88      1.0  0.30000  0.10000  0.36803  1.0000
  O   O253      1.0  0.21132  0.03953  0.39502  1.0000
  O   O254      1.0  0.38868  0.16047  0.47580  1.0000
  O   O255      1.0  0.38868  0.13953  0.40842  1.0000
  O   O256      1.0  0.21132  0.06047  0.46241  1.0000
  O   O257      1.0  0.28868  0.06047  0.46241  1.0000
  O   O258      1.0  0.31132  0.13953  0.40842  1.0000
  O   O259      1.0  0.31132  0.16047  0.47580  1.0000
  O   O260      1.0  0.28868  0.03953  0.39502  1.0000
  O   O261      1.0  0.25000  0.12137  0.37363  1.0000
  O   O262      1.0  0.35000  0.07863  0.49720  1.0000
  O   O263      1.0  0.35000  0.02137  0.42981  1.0000
  O   O264      1.0  0.25000  0.17863  0.44101  1.0000
  Ca  Ca89      1.0  0.35000  0.19729  0.50980  1.0000
  Ca  Ca90      1.0  0.25000  0.00271  0.63057  1.0000
  Ca  Ca91      1.0  0.25000  0.09729  0.56319  1.0000
  Ca  Ca92      1.0  0.35000  0.10271  0.57719  1.0000
  Zr  Zr89      1.0  0.20000  0.10000  0.50280  1.0000
  Zr  Zr90      1.0  0.20000  0.00000  0.57019  1.0000
  Zr  Zr91      1.0  0.30000  0.00000  0.57019  1.0000
  Zr  Zr92      1.0  0.30000  0.10000  0.50280  1.0000
  O   O265      1.0  0.21132  0.03953  0.52980  1.0000
  O   O266      1.0  0.38868  0.16047  0.61058  1.0000
  O   O267      1.0  0.38868  0.13953  0.54319  1.0000
  O   O268      1.0  0.21132  0.06047  0.59718  1.0000
  O   O269      1.0  0.28868  0.06047  0.59718  1.0000
  O   O270      1.0  0.31132  0.13953  0.54319  1.0000
  O   O271      1.0  0.31132  0.16047  0.61058  1.0000
  O   O272      1.0  0.28868  0.03953  0.52980  1.0000
  O   O273      1.0  0.25000  0.12137  0.50840  1.0000
  O   O274      1.0  0.35000  0.07863  0.63197  1.0000
  O   O275      1.0  0.35000  0.02137  0.56459  1.0000
  O   O276      1.0  0.25000  0.17863  0.57579  1.0000
  Ca  Ca93      1.0  0.35000  0.19729  0.64458  1.0000
  Ca  Ca94      1.0  0.25000  0.00271  0.76535  1.0000
  Ca  Ca95      1.0  0.25000  0.09729  0.69796  1.0000
  Ca  Ca96      1.0  0.35000  0.10271  0.71197  1.0000
  Zr  Zr93      1.0  0.20000  0.10000  0.63758  1.0000
  Zr  Zr94      1.0  0.20000  0.00000  0.70496  1.0000
  Zr  Zr95      1.0  0.30000  0.00000  0.70496  1.0000
  Zr  Zr96      1.0  0.30000  0.10000  0.63758  1.0000
  O   O277      1.0  0.21132  0.03953  0.66457  1.0000
  O   O278      1.0  0.38868  0.16047  0.74535  1.0000
  O   O279      1.0  0.38868  0.13953  0.67797  1.0000
  O   O280      1.0  0.21132  0.06047  0.73196  1.0000
  O   O281      1.0  0.28868  0.06047  0.73196  1.0000
  O   O282      1.0  0.31132  0.13953  0.67797  1.0000
  O   O283      1.0  0.31132  0.16047  0.74535  1.0000
  O   O284      1.0  0.28868  0.03953  0.66457  1.0000
  O   O285      1.0  0.25000  0.12137  0.64318  1.0000
  O   O286      1.0  0.35000  0.07863  0.76675  1.0000
  O   O287      1.0  0.35000  0.02137  0.69936  1.0000
  O   O288      1.0  0.25000  0.17863  0.71056  1.0000
  Ca  Ca97      1.0  0.35000  0.39729  0.24025  1.0000
  Ca  Ca98      1.0  0.25000  0.20271  0.36102  1.0000
  Ca  Ca99      1.0  0.25000  0.29729  0.29364  1.0000
  Ca  Ca100     1.0  0.35000  0.30271  0.30764  1.0000
  Zr  Zr97      1.0  0.20000  0.30000  0.23325  1.0000
  Zr  Zr98      1.0  0.20000  0.20000  0.30064  1.0000
  Zr  Zr99      1.0  0.30000  0.20000  0.30064  1.0000
  Zr  Zr100     1.0  0.30000  0.30000  0.23325  1.0000
  O   O289      1.0  0.21132  0.23953  0.26025  1.0000
  O   O290      1.0  0.38868  0.36047  0.34103  1.0000
  O   O291      1.0  0.38868  0.33953  0.27364  1.0000
  O   O292      1.0  0.21132  0.26047  0.32763  1.0000
  O   O293      1.0  0.28868  0.26047  0.32763  1.0000
  O   O294      1.0  0.31132  0.33953  0.27364  1.0000
  O   O295      1.0  0.31132  0.36047  0.34103  1.0000
  O   O296      1.0  0.28868  0.23953  0.26025  1.0000
  O   O297      1.0  0.25000  0.32137  0.23885  1.0000
  O   O298      1.0  0.35000  0.27863  0.36242  1.0000
  O   O299      1.0  0.35000  0.22137  0.29504  1.0000
  O   O300      1.0  0.25000  0.37863  0.30624  1.0000
  Ca  Ca101     1.0  0.35000  0.39729  0.37503  1.0000
  Ca  Ca102     1.0  0.25000  0.20271  0.49580  1.0000
  Ca  Ca103     1.0  0.25000  0.29729  0.42841  1.0000
  Ca  Ca104     1.0  0.35000  0.30271  0.44242  1.0000
  Zr  Zr101     1.0  0.20000  0.30000  0.36803  1.0000
  Zr  Zr102     1.0  0.20000  0.20000  0.43541  1.0000
  Zr  Zr103     1.0  0.30000  0.20000  0.43541  1.0000
  Zr  Zr104     1.0  0.30000  0.30000  0.36803  1.0000
  O   O301      1.0  0.21132  0.23953  0.39502  1.0000
  O   O302      1.0  0.38868  0.36047  0.47580  1.0000
  O   O303      1.0  0.38868  0.33953  0.40842  1.0000
  O   O304      1.0  0.21132  0.26047  0.46241  1.0000
  O   O305      1.0  0.28868  0.26047  0.46241  1.0000
  O   O306      1.0  0.31132  0.33953  0.40842  1.0000
  O   O307      1.0  0.31132  0.36047  0.47580  1.0000
  O   O308      1.0  0.28868  0.23953  0.39502  1.0000
  O   O309      1.0  0.25000  0.32137  0.37363  1.0000
  O   O310      1.0  0.35000  0.27863  0.49720  1.0000
  O   O311      1.0  0.35000  0.22137  0.42981  1.0000
  O   O312      1.0  0.25000  0.37863  0.44101  1.0000
  Ca  Ca105     1.0  0.35000  0.39729  0.50980  1.0000
  Ca  Ca106     1.0  0.25000  0.20271  0.63057  1.0000
  Ca  Ca107     1.0  0.25000  0.29729  0.56319  1.0000
  Ca  Ca108     1.0  0.35000  0.30271  0.57719  1.0000
  Zr  Zr105     1.0  0.20000  0.30000  0.50280  1.0000
  Zr  Zr106     1.0  0.20000  0.20000  0.57019  1.0000
  Zr  Zr107     1.0  0.30000  0.20000  0.57019  1.0000
  Zr  Zr108     1.0  0.30000  0.30000  0.50280  1.0000
  O   O313      1.0  0.21132  0.23953  0.52980  1.0000
  O   O314      1.0  0.38868  0.36047  0.61058  1.0000
  O   O315      1.0  0.38868  0.33953  0.54319  1.0000
  O   O316      1.0  0.21132  0.26047  0.59718  1.0000
  O   O317      1.0  0.28868  0.26047  0.59718  1.0000
  O   O318      1.0  0.31132  0.33953  0.54319  1.0000
  O   O319      1.0  0.31132  0.36047  0.61058  1.0000
  O   O320      1.0  0.28868  0.23953  0.52980  1.0000
  O   O321      1.0  0.25000  0.32137  0.50840  1.0000
  O   O322      1.0  0.35000  0.27863  0.63197  1.0000
  O   O323      1.0  0.35000  0.22137  0.56459  1.0000
  O   O324      1.0  0.25000  0.37863  0.57579  1.0000
  Ca  Ca109     1.0  0.35000  0.39729  0.64458  1.0000
  Ca  Ca110     1.0  0.25000  0.20271  0.76535  1.0000
  Ca  Ca111     1.0  0.25000  0.29729  0.69796  1.0000
  Ca  Ca112     1.0  0.35000  0.30271  0.71197  1.0000
  Zr  Zr109     1.0  0.20000  0.30000  0.63758  1.0000
  Zr  Zr110     1.0  0.20000  0.20000  0.70496  1.0000
  Zr  Zr111     1.0  0.30000  0.20000  0.70496  1.0000
  Zr  Zr112     1.0  0.30000  0.30000  0.63758  1.0000
  O   O325      1.0  0.21132  0.23953  0.66457  1.0000
  O   O326      1.0  0.38868  0.36047  0.74535  1.0000
  O   O327      1.0  0.38868  0.33953  0.67797  1.0000
  O   O328      1.0  0.21132  0.26047  0.73196  1.0000
  O   O329      1.0  0.28868  0.26047  0.73196  1.0000
  O   O330      1.0  0.31132  0.33953  0.67797  1.0000
  O   O331      1.0  0.31132  0.36047  0.74535  1.0000
  O   O332      1.0  0.28868  0.23953  0.66457  1.0000
  O   O333      1.0  0.25000  0.32137  0.64318  1.0000
  O   O334      1.0  0.35000  0.27863  0.76675  1.0000
  O   O335      1.0  0.35000  0.22137  0.69936  1.0000
  O   O336      1.0  0.25000  0.37863  0.71056  1.0000
  Ca  Ca113     1.0  0.35000  0.59729  0.24025  1.0000
  Ca  Ca114     1.0  0.25000  0.40271  0.36102  1.0000
  Ca  Ca115     1.0  0.25000  0.49729  0.29364  1.0000
  Ca  Ca116     1.0  0.35000  0.50271  0.30764  1.0000
  Zr  Zr113     1.0  0.20000  0.50000  0.23325  1.0000
  Zr  Zr114     1.0  0.20000  0.40000  0.30064  1.0000
  Zr  Zr115     1.0  0.30000  0.40000  0.30064  1.0000
  Zr  Zr116     1.0  0.30000  0.50000  0.23325  1.0000
  O   O337      1.0  0.21132  0.43953  0.26025  1.0000
  O   O338      1.0  0.38868  0.56047  0.34103  1.0000
  O   O339      1.0  0.38868  0.53953  0.27364  1.0000
  O   O340      1.0  0.21132  0.46047  0.32763  1.0000
  O   O341      1.0  0.28868  0.46047  0.32763  1.0000
  O   O342      1.0  0.31132  0.53953  0.27364  1.0000
  O   O343      1.0  0.31132  0.56047  0.34103  1.0000
  O   O344      1.0  0.28868  0.43953  0.26025  1.0000
  O   O345      1.0  0.25000  0.52137  0.23885  1.0000
  O   O346      1.0  0.35000  0.47863  0.36242  1.0000
  O   O347      1.0  0.35000  0.42137  0.29504  1.0000
  O   O348      1.0  0.25000  0.57863  0.30624  1.0000
  Ca  Ca117     1.0  0.35000  0.59729  0.37503  1.0000
  Ca  Ca118     1.0  0.25000  0.40271  0.49580  1.0000
  Ca  Ca119     1.0  0.25000  0.49729  0.42841  1.0000
  Ca  Ca120     1.0  0.35000  0.50271  0.44242  1.0000
  Zr  Zr117     1.0  0.20000  0.50000  0.36803  1.0000
  Zr  Zr118     1.0  0.20000  0.40000  0.43541  1.0000
  Zr  Zr119     1.0  0.30000  0.40000  0.43541  1.0000
  Zr  Zr120     1.0  0.30000  0.50000  0.36803  1.0000
  O   O349      1.0  0.21132  0.43953  0.39502  1.0000
  O   O350      1.0  0.38868  0.56047  0.47580  1.0000
  O   O351      1.0  0.38868  0.53953  0.40842  1.0000
  O   O352      1.0  0.21132  0.46047  0.46241  1.0000
  O   O353      1.0  0.28868  0.46047  0.46241  1.0000
  O   O354      1.0  0.31132  0.53953  0.40842  1.0000
  O   O355      1.0  0.31132  0.56047  0.47580  1.0000
  O   O356      1.0  0.28868  0.43953  0.39502  1.0000
  O   O357      1.0  0.25000  0.52137  0.37363  1.0000
  O   O358      1.0  0.35000  0.47863  0.49720  1.0000
  O   O359      1.0  0.35000  0.42137  0.42981  1.0000
  O   O360      1.0  0.25000  0.57863  0.44101  1.0000
  Ca  Ca121     1.0  0.35000  0.59729  0.50980  1.0000
  Ca  Ca122     1.0  0.25000  0.40271  0.63057  1.0000
  Ca  Ca123     1.0  0.25000  0.49729  0.56319  1.0000
  Ca  Ca124     1.0  0.35000  0.50271  0.57719  1.0000
  Zr  Zr121     1.0  0.20000  0.50000  0.50280  1.0000
  Zr  Zr122     1.0  0.20000  0.40000  0.57019  1.0000
  Zr  Zr123     1.0  0.30000  0.40000  0.57019  1.0000
  Zr  Zr124     1.0  0.30000  0.50000  0.50280  1.0000
  O   O361      1.0  0.21132  0.43953  0.52980  1.0000
  O   O362      1.0  0.38868  0.56047  0.61058  1.0000
  O   O363      1.0  0.38868  0.53953  0.54319  1.0000
  O   O364      1.0  0.21132  0.46047  0.59718  1.0000
  O   O365      1.0  0.28868  0.46047  0.59718  1.0000
  O   O366      1.0  0.31132  0.53953  0.54319  1.0000
  O   O367      1.0  0.31132  0.56047  0.61058  1.0000
  O   O368      1.0  0.28868  0.43953  0.52980  1.0000
  O   O369      1.0  0.25000  0.52137  0.50840  1.0000
  O   O370      1.0  0.35000  0.47863  0.63197  1.0000
  O   O371      1.0  0.35000  0.42137  0.56459  1.0000
  O   O372      1.0  0.25000  0.57863  0.57579  1.0000
  Ca  Ca125     1.0  0.35000  0.59729  0.64458  1.0000
  Ca  Ca126     1.0  0.25000  0.40271  0.76535  1.0000
  Ca  Ca127     1.0  0.25000  0.49729  0.69796  1.0000
  Ca  Ca128     1.0  0.35000  0.50271  0.71197  1.0000
  Zr  Zr125     1.0  0.20000  0.50000  0.63758  1.0000
  Zr  Zr126     1.0  0.20000  0.40000  0.70496  1.0000
  Zr  Zr127     1.0  0.30000  0.40000  0.70496  1.0000
  Zr  Zr128     1.0  0.30000  0.50000  0.63758  1.0000
  O   O373      1.0  0.21132  0.43953  0.66457  1.0000
  O   O374      1.0  0.38868  0.56047  0.74535  1.0000
  O   O375      1.0  0.38868  0.53953  0.67797  1.0000
  O   O376      1.0  0.21132  0.46047  0.73196  1.0000
  O   O377      1.0  0.28868  0.46047  0.73196  1.0000
  O   O378      1.0  0.31132  0.53953  0.67797  1.0000
  O   O379      1.0  0.31132  0.56047  0.74535  1.0000
  O   O380      1.0  0.28868  0.43953  0.66457  1.0000
  O   O381      1.0  0.25000  0.52137  0.64318  1.0000
  O   O382      1.0  0.35000  0.47863  0.76675  1.0000
  O   O383      1.0  0.35000  0.42137  0.69936  1.0000
  O   O384      1.0  0.25000  0.57863  0.71056  1.0000
  Ca  Ca129     1.0  0.35000  0.79729  0.24025  1.0000
  Ca  Ca130     1.0  0.25000  0.60271  0.36102  1.0000
  Ca  Ca131     1.0  0.25000  0.69729  0.29364  1.0000
  Ca  Ca132     1.0  0.35000  0.70271  0.30764  1.0000
  Zr  Zr129     1.0  0.20000  0.70000  0.23325  1.0000
  Zr  Zr130     1.0  0.20000  0.60000  0.30064  1.0000
  Zr  Zr131     1.0  0.30000  0.60000  0.30064  1.0000
  Zr  Zr132     1.0  0.30000  0.70000  0.23325  1.0000
  O   O385      1.0  0.21132  0.63953  0.26025  1.0000
  O   O386      1.0  0.38868  0.76047  0.34103  1.0000
  O   O387      1.0  0.38868  0.73953  0.27364  1.0000
  O   O388      1.0  0.21132  0.66047  0.32763  1.0000
  O   O389      1.0  0.28868  0.66047  0.32763  1.0000
  O   O390      1.0  0.31132  0.73953  0.27364  1.0000
  O   O391      1.0  0.31132  0.76047  0.34103  1.0000
  O   O392      1.0  0.28868  0.63953  0.26025  1.0000
  O   O393      1.0  0.25000  0.72137  0.23885  1.0000
  O   O394      1.0  0.35000  0.67863  0.36242  1.0000
  O   O395      1.0  0.35000  0.62137  0.29504  1.0000
  O   O396      1.0  0.25000  0.77863  0.30624  1.0000
  Ca  Ca133     1.0  0.35000  0.79729  0.37503  1.0000
  Ca  Ca134     1.0  0.25000  0.60271  0.49580  1.0000
  Ca  Ca135     1.0  0.25000  0.69729  0.42841  1.0000
  Ca  Ca136     1.0  0.35000  0.70271  0.44242  1.0000
  Zr  Zr133     1.0  0.20000  0.70000  0.36803  1.0000
  Zr  Zr134     1.0  0.20000  0.60000  0.43541  1.0000
  Zr  Zr135     1.0  0.30000  0.60000  0.43541  1.0000
  Zr  Zr136     1.0  0.30000  0.70000  0.36803  1.0000
  O   O397      1.0  0.21132  0.63953  0.39502  1.0000
  O   O398      1.0  0.38868  0.76047  0.47580  1.0000
  O   O399      1.0  0.38868  0.73953  0.40842  1.0000
  O   O400      1.0  0.21132  0.66047  0.46241  1.0000
  O   O401      1.0  0.28868  0.66047  0.46241  1.0000
  O   O402      1.0  0.31132  0.73953  0.40842  1.0000
  O   O403      1.0  0.31132  0.76047  0.47580  1.0000
  O   O404      1.0  0.28868  0.63953  0.39502  1.0000
  O   O405      1.0  0.25000  0.72137  0.37363  1.0000
  O   O406      1.0  0.35000  0.67863  0.49720  1.0000
  O   O407      1.0  0.35000  0.62137  0.42981  1.0000
  O   O408      1.0  0.25000  0.77863  0.44101  1.0000
  Ca  Ca137     1.0  0.35000  0.79729  0.50980  1.0000
  Ca  Ca138     1.0  0.25000  0.60271  0.63057  1.0000
  Ca  Ca139     1.0  0.25000  0.69729  0.56319  1.0000
  Ca  Ca140     1.0  0.35000  0.70271  0.57719  1.0000
  Zr  Zr137     1.0  0.20000  0.70000  0.50280  1.0000
  Zr  Zr138     1.0  0.20000  0.60000  0.57019  1.0000
  Zr  Zr139     1.0  0.30000  0.60000  0.57019  1.0000
  Zr  Zr140     1.0  0.30000  0.70000  0.50280  1.0000
  O   O409      1.0  0.21132  0.63953  0.52980  1.0000
  O   O410      1.0  0.38868  0.76047  0.61058  1.0000
  O   O411      1.0  0.38868  0.73953  0.54319  1.0000
  O   O412      1.0  0.21132  0.66047  0.59718  1.0000
  O   O413      1.0  0.28868  0.66047  0.59718  1.0000
  O   O414      1.0  0.31132  0.73953  0.54319  1.0000
  O   O415      1.0  0.31132  0.76047  0.61058  1.0000
  O   O416      1.0  0.28868  0.63953  0.52980  1.0000
  O   O417      1.0  0.25000  0.72137  0.50840  1.0000
  O   O418      1.0  0.35000  0.67863  0.63197  1.0000
  O   O419      1.0  0.35000  0.62137  0.56459  1.0000
  O   O420      1.0  0.25000  0.77863  0.57579  1.0000
  Ca  Ca141     1.0  0.35000  0.79729  0.64458  1.0000
  Ca  Ca142     1.0  0.25000  0.60271  0.76535  1.0000
  Ca  Ca143     1.0  0.25000  0.69729  0.69796  1.0000
  Ca  Ca144     1.0  0.35000  0.70271  0.71197  1.0000
  Zr  Zr141     1.0  0.20000  0.70000  0.63758  1.0000
  Zr  Zr142     1.0  0.20000  0.60000  0.70496  1.0000
  Zr  Zr143     1.0  0.30000  0.60000  0.70496  1.0000
  Zr  Zr144     1.0  0.30000  0.70000  0.63758  1.0000
  O   O421      1.0  0.21132  0.63953  0.66457  1.0000
  O   O422      1.0  0.38868  0.76047  0.74535  1.0000
  O   O423      1.0  0.38868  0.73953  0.67797  1.0000
  O   O424      1.0  0.21132  0.66047  0.73196  1.0000
  O   O425      1.0  0.28868  0.66047  0.73196  1.0000
  O   O426      1.0  0.31132  0.73953  0.67797  1.0000
  O   O427      1.0  0.31132  0.76047  0.74535  1.0000
  O   O428      1.0  0.28868  0.63953  0.66457  1.0000
  O   O429      1.0  0.25000  0.72137  0.64318  1.0000
  O   O430      1.0  0.35000  0.67863  0.76675  1.0000
  O   O431      1.0  0.35000  0.62137  0.69936  1.0000
  O   O432      1.0  0.25000  0.77863  0.71056  1.0000
  Ca  Ca145     1.0  0.35000  0.99729  0.24025  1.0000
  Ca  Ca146     1.0  0.25000  0.80271  0.36102  1.0000
  Ca  Ca147     1.0  0.25000  0.89729  0.29364  1.0000
  Ca  Ca148     1.0  0.35000  0.90271  0.30764  1.0000
  Zr  Zr145     1.0  0.20000  0.90000  0.23325  1.0000
  Zr  Zr146     1.0  0.20000  0.80000  0.30064  1.0000
  Zr  Zr147     1.0  0.30000  0.80000  0.30064  1.0000
  Zr  Zr148     1.0  0.30000  0.90000  0.23325  1.0000
  O   O433      1.0  0.21132  0.83953  0.26025  1.0000
  O   O434      1.0  0.38868  0.96047  0.34103  1.0000
  O   O435      1.0  0.38868  0.93953  0.27364  1.0000
  O   O436      1.0  0.21132  0.86047  0.32763  1.0000
  O   O437      1.0  0.28868  0.86047  0.32763  1.0000
  O   O438      1.0  0.31132  0.93953  0.27364  1.0000
  O   O439      1.0  0.31132  0.96047  0.34103  1.0000
  O   O440      1.0  0.28868  0.83953  0.26025  1.0000
  O   O441      1.0  0.25000  0.92137  0.23885  1.0000
  O   O442      1.0  0.35000  0.87863  0.36242  1.0000
  O   O443      1.0  0.35000  0.82137  0.29504  1.0000
  O   O444      1.0  0.25000  0.97863  0.30624  1.0000
  Ca  Ca149     1.0  0.35000  0.99729  0.37503  1.0000
  Ca  Ca150     1.0  0.25000  0.80271  0.49580  1.0000
  Ca  Ca151     1.0  0.25000  0.89729  0.42841  1.0000
  Ca  Ca152     1.0  0.35000  0.90271  0.44242  1.0000
  Zr  Zr149     1.0  0.20000  0.90000  0.36803  1.0000
  Zr  Zr150     1.0  0.20000  0.80000  0.43541  1.0000
  Zr  Zr151     1.0  0.30000  0.80000  0.43541  1.0000
  Zr  Zr152     1.0  0.30000  0.90000  0.36803  1.0000
  O   O445      1.0  0.21132  0.83953  0.39502  1.0000
  O   O446      1.0  0.38868  0.96047  0.47580  1.0000
  O   O447      1.0  0.38868  0.93953  0.40842  1.0000
  O   O448      1.0  0.21132  0.86047  0.46241  1.0000
  O   O449      1.0  0.28868  0.86047  0.46241  1.0000
  O   O450      1.0  0.31132  0.93953  0.40842  1.0000
  O   O451      1.0  0.31132  0.96047  0.47580  1.0000
  O   O452      1.0  0.28868  0.83953  0.39502  1.0000
  O   O453      1.0  0.25000  0.92137  0.37363  1.0000
  O   O454      1.0  0.35000  0.87863  0.49720  1.0000
  O   O455      1.0  0.35000  0.82137  0.42981  1.0000
  O   O456      1.0  0.25000  0.97863  0.44101  1.0000
  Ca  Ca153     1.0  0.35000  0.99729  0.50980  1.0000
  Ca  Ca154     1.0  0.25000  0.80271  0.63057  1.0000
  Ca  Ca155     1.0  0.25000  0.89729  0.56319  1.0000
  Ca  Ca156     1.0  0.35000  0.90271  0.57719  1.0000
  Zr  Zr153     1.0  0.20000  0.90000  0.50280  1.0000
  Zr  Zr154     1.0  0.20000  0.80000  0.57019  1.0000
  Zr  Zr155     1.0  0.30000  0.80000  0.57019  1.0000
  Zr  Zr156     1.0  0.30000  0.90000  0.50280  1.0000
  O   O457      1.0  0.21132  0.83953  0.52980  1.0000
  O   O458      1.0  0.38868  0.96047  0.61058  1.0000
  O   O459      1.0  0.38868  0.93953  0.54319  1.0000
  O   O460      1.0  0.21132  0.86047  0.59718  1.0000
  O   O461      1.0  0.28868  0.86047  0.59718  1.0000
  O   O462      1.0  0.31132  0.93953  0.54319  1.0000
  O   O463      1.0  0.31132  0.96047  0.61058  1.0000
  O   O464      1.0  0.28868  0.83953  0.52980  1.0000
  O   O465      1.0  0.25000  0.92137  0.50840  1.0000
  O   O466      1.0  0.35000  0.87863  0.63197  1.0000
  O   O467      1.0  0.35000  0.82137  0.56459  1.0000
  O   O468      1.0  0.25000  0.97863  0.57579  1.0000
  Ca  Ca157     1.0  0.35000  0.99729  0.64458  1.0000
  Ca  Ca158     1.0  0.25000  0.80271  0.76535  1.0000
  Ca  Ca159     1.0  0.25000  0.89729  0.69796  1.0000
  Ca  Ca160     1.0  0.35000  0.90271  0.71197  1.0000
  Zr  Zr157     1.0  0.20000  0.90000  0.63758  1.0000
  Zr  Zr158     1.0  0.20000  0.80000  0.70496  1.0000
  Zr  Zr159     1.0  0.30000  0.80000  0.70496  1.0000
  Zr  Zr160     1.0  0.30000  0.90000  0.63758  1.0000
  O   O469      1.0  0.21132  0.83953  0.66457  1.0000
  O   O470      1.0  0.38868  0.96047  0.74535  1.0000
  O   O471      1.0  0.38868  0.93953  0.67797  1.0000
  O   O472      1.0  0.21132  0.86047  0.73196  1.0000
  O   O473      1.0  0.28868  0.86047  0.73196  1.0000
  O   O474      1.0  0.31132  0.93953  0.67797  1.0000
  O   O475      1.0  0.31132  0.96047  0.74535  1.0000
  O   O476      1.0  0.28868  0.83953  0.66457  1.0000
  O   O477      1.0  0.25000  0.92137  0.64318  1.0000
  O   O478      1.0  0.35000  0.87863  0.76675  1.0000
  O   O479      1.0  0.35000  0.82137  0.69936  1.0000
  O   O480      1.0  0.25000  0.97863  0.71056  1.0000
  Ca  Ca161     1.0  0.55000  0.19729  0.24025  1.0000
  Ca  Ca162     1.0  0.45000  0.00271  0.36102  1.0000
  Ca  Ca163     1.0  0.45000  0.09729  0.29364  1.0000
  Ca  Ca164     1.0  0.55000  0.10271  0.30764  1.0000
  Zr  Zr161     1.0  0.40000  0.10000  0.23325  1.0000
  Zr  Zr162     1.0  0.40000  0.00000  0.30064  1.0000
  Zr  Zr163     1.0  0.50000  0.00000  0.30064  1.0000
  Zr  Zr164     1.0  0.50000  0.10000  0.23325  1.0000
  O   O481      1.0  0.41132  0.03953  0.26025  1.0000
  O   O482      1.0  0.58868  0.16047  0.34103  1.0000
  O   O483      1.0  0.58868  0.13953  0.27364  1.0000
  O   O484      1.0  0.41132  0.06047  0.32763  1.0000
  O   O485      1.0  0.48868  0.06047  0.32763  1.0000
  O   O486      1.0  0.51132  0.13953  0.27364  1.0000
  O   O487      1.0  0.51132  0.16047  0.34103  1.0000
  O   O488      1.0  0.48868  0.03953  0.26025  1.0000
  O   O489      1.0  0.45000  0.12137  0.23885  1.0000
  O   O490      1.0  0.55000  0.07863  0.36242  1.0000
  O   O491      1.0  0.55000  0.02137  0.29504  1.0000
  O   O492      1.0  0.45000  0.17863  0.30624  1.0000
  Ca  Ca165     1.0  0.55000  0.19729  0.37503  1.0000
  Ca  Ca166     1.0  0.45000  0.00271  0.49580  1.0000
  Ca  Ca167     1.0  0.45000  0.09729  0.42841  1.0000
  Ca  Ca168     1.0  0.55000  0.10271  0.44242  1.0000
  Zr  Zr165     1.0  0.40000  0.10000  0.36803  1.0000
  Zr  Zr166     1.0  0.40000  0.00000  0.43541  1.0000
  Zr  Zr167     1.0  0.50000  0.00000  0.43541  1.0000
  Zr  Zr168     1.0  0.50000  0.10000  0.36803  1.0000
  O   O493      1.0  0.41132  0.03953  0.39502  1.0000
  O   O494      1.0  0.58868  0.16047  0.47580  1.0000
  O   O495      1.0  0.58868  0.13953  0.40842  1.0000
  O   O496      1.0  0.41132  0.06047  0.46241  1.0000
  O   O497      1.0  0.48868  0.06047  0.46241  1.0000
  O   O498      1.0  0.51132  0.13953  0.40842  1.0000
  O   O499      1.0  0.51132  0.16047  0.47580  1.0000
  O   O500      1.0  0.48868  0.03953  0.39502  1.0000
  O   O501      1.0  0.45000  0.12137  0.37363  1.0000
  O   O502      1.0  0.55000  0.07863  0.49720  1.0000
  O   O503      1.0  0.55000  0.02137  0.42981  1.0000
  O   O504      1.0  0.45000  0.17863  0.44101  1.0000
  Ca  Ca169     1.0  0.55000  0.19729  0.50980  1.0000
  Ca  Ca170     1.0  0.45000  0.00271  0.63057  1.0000
  Ca  Ca171     1.0  0.45000  0.09729  0.56319  1.0000
  Ca  Ca172     1.0  0.55000  0.10271  0.57719  1.0000
  Zr  Zr169     1.0  0.40000  0.10000  0.50280  1.0000
  Zr  Zr170     1.0  0.40000  0.00000  0.57019  1.0000
  Zr  Zr171     1.0  0.50000  0.00000  0.57019  1.0000
  Zr  Zr172     1.0  0.50000  0.10000  0.50280  1.0000
  O   O505      1.0  0.41132  0.03953  0.52980  1.0000
  O   O506      1.0  0.58868  0.16047  0.61058  1.0000
  O   O507      1.0  0.58868  0.13953  0.54319  1.0000
  O   O508      1.0  0.41132  0.06047  0.59718  1.0000
  O   O509      1.0  0.48868  0.06047  0.59718  1.0000
  O   O510      1.0  0.51132  0.13953  0.54319  1.0000
  O   O511      1.0  0.51132  0.16047  0.61058  1.0000
  O   O512      1.0  0.48868  0.03953  0.52980  1.0000
  O   O513      1.0  0.45000  0.12137  0.50840  1.0000
  O   O514      1.0  0.55000  0.07863  0.63197  1.0000
  O   O515      1.0  0.55000  0.02137  0.56459  1.0000
  O   O516      1.0  0.45000  0.17863  0.57579  1.0000
  Ca  Ca173     1.0  0.55000  0.19729  0.64458  1.0000
  Ca  Ca174     1.0  0.45000  0.00271  0.76535  1.0000
  Ca  Ca175     1.0  0.45000  0.09729  0.69796  1.0000
  Ca  Ca176     1.0  0.55000  0.10271  0.71197  1.0000
  Zr  Zr173     1.0  0.40000  0.10000  0.63758  1.0000
  Zr  Zr174     1.0  0.40000  0.00000  0.70496  1.0000
  Zr  Zr175     1.0  0.50000  0.00000  0.70496  1.0000
  Zr  Zr176     1.0  0.50000  0.10000  0.63758  1.0000
  O   O517      1.0  0.41132  0.03953  0.66457  1.0000
  O   O518      1.0  0.58868  0.16047  0.74535  1.0000
  O   O519      1.0  0.58868  0.13953  0.67797  1.0000
  O   O520      1.0  0.41132  0.06047  0.73196  1.0000
  O   O521      1.0  0.48868  0.06047  0.73196  1.0000
  O   O522      1.0  0.51132  0.13953  0.67797  1.0000
  O   O523      1.0  0.51132  0.16047  0.74535  1.0000
  O   O524      1.0  0.48868  0.03953  0.66457  1.0000
  O   O525      1.0  0.45000  0.12137  0.64318  1.0000
  O   O526      1.0  0.55000  0.07863  0.76675  1.0000
  O   O527      1.0  0.55000  0.02137  0.69936  1.0000
  O   O528      1.0  0.45000  0.17863  0.71056  1.0000
  Ca  Ca177     1.0  0.55000  0.39729  0.24025  1.0000
  Ca  Ca178     1.0  0.45000  0.20271  0.36102  1.0000
  Ca  Ca179     1.0  0.45000  0.29729  0.29364  1.0000
  Ca  Ca180     1.0  0.55000  0.30271  0.30764  1.0000
  Zr  Zr177     1.0  0.40000  0.30000  0.23325  1.0000
  Zr  Zr178     1.0  0.40000  0.20000  0.30064  1.0000
  Zr  Zr179     1.0  0.50000  0.20000  0.30064  1.0000
  Zr  Zr180     1.0  0.50000  0.30000  0.23325  1.0000
  O   O529      1.0  0.41132  0.23953  0.26025  1.0000
  O   O530      1.0  0.58868  0.36047  0.34103  1.0000
  O   O531      1.0  0.58868  0.33953  0.27364  1.0000
  O   O532      1.0  0.41132  0.26047  0.32763  1.0000
  O   O533      1.0  0.48868  0.26047  0.32763  1.0000
  O   O534      1.0  0.51132  0.33953  0.27364  1.0000
  O   O535      1.0  0.51132  0.36047  0.34103  1.0000
  O   O536      1.0  0.48868  0.23953  0.26025  1.0000
  O   O537      1.0  0.45000  0.32137  0.23885  1.0000
  O   O538      1.0  0.55000  0.27863  0.36242  1.0000
  O   O539      1.0  0.55000  0.22137  0.29504  1.0000
  O   O540      1.0  0.45000  0.37863  0.30624  1.0000
  Ca  Ca181     1.0  0.55000  0.39729  0.37503  1.0000
  Ca  Ca182     1.0  0.45000  0.20271  0.49580  1.0000
  Ca  Ca183     1.0  0.45000  0.29729  0.42841  1.0000
  Ca  Ca184     1.0  0.55000  0.30271  0.44242  1.0000
  Zr  Zr181     1.0  0.40000  0.30000  0.36803  1.0000
  Zr  Zr182     1.0  0.40000  0.20000  0.43541  1.0000
  Zr  Zr183     1.0  0.50000  0.20000  0.43541  1.0000
  Zr  Zr184     1.0  0.50000  0.30000  0.36803  1.0000
  O   O541      1.0  0.41132  0.23953  0.39502  1.0000
  O   O542      1.0  0.58868  0.36047  0.47580  1.0000
  O   O543      1.0  0.58868  0.33953  0.40842  1.0000
  O   O544      1.0  0.41132  0.26047  0.46241  1.0000
  O   O545      1.0  0.48868  0.26047  0.46241  1.0000
  O   O546      1.0  0.51132  0.33953  0.40842  1.0000
  O   O547      1.0  0.51132  0.36047  0.47580  1.0000
  O   O548      1.0  0.48868  0.23953  0.39502  1.0000
  O   O549      1.0  0.45000  0.32137  0.37363  1.0000
  O   O550      1.0  0.55000  0.27863  0.49720  1.0000
  O   O551      1.0  0.55000  0.22137  0.42981  1.0000
  O   O552      1.0  0.45000  0.37863  0.44101  1.0000
  Ca  Ca185     1.0  0.55000  0.39729  0.50980  1.0000
  Ca  Ca186     1.0  0.45000  0.20271  0.63057  1.0000
  Ca  Ca187     1.0  0.45000  0.29729  0.56319  1.0000
  Ca  Ca188     1.0  0.55000  0.30271  0.57719  1.0000
  Zr  Zr185     1.0  0.40000  0.30000  0.50280  1.0000
  Zr  Zr186     1.0  0.40000  0.20000  0.57019  1.0000
  Zr  Zr187     1.0  0.50000  0.20000  0.57019  1.0000
  Zr  Zr188     1.0  0.50000  0.30000  0.50280  1.0000
  O   O553      1.0  0.41132  0.23953  0.52980  1.0000
  O   O554      1.0  0.58868  0.36047  0.61058  1.0000
  O   O555      1.0  0.58868  0.33953  0.54319  1.0000
  O   O556      1.0  0.41132  0.26047  0.59718  1.0000
  O   O557      1.0  0.48868  0.26047  0.59718  1.0000
  O   O558      1.0  0.51132  0.33953  0.54319  1.0000
  O   O559      1.0  0.51132  0.36047  0.61058  1.0000
  O   O560      1.0  0.48868  0.23953  0.52980  1.0000
  O   O561      1.0  0.45000  0.32137  0.50840  1.0000
  O   O562      1.0  0.55000  0.27863  0.63197  1.0000
  O   O563      1.0  0.55000  0.22137  0.56459  1.0000
  O   O564      1.0  0.45000  0.37863  0.57579  1.0000
  Ca  Ca189     1.0  0.55000  0.39729  0.64458  1.0000
  Ca  Ca190     1.0  0.45000  0.20271  0.76535  1.0000
  Ca  Ca191     1.0  0.45000  0.29729  0.69796  1.0000
  Ca  Ca192     1.0  0.55000  0.30271  0.71197  1.0000
  Zr  Zr189     1.0  0.40000  0.30000  0.63758  1.0000
  Zr  Zr190     1.0  0.40000  0.20000  0.70496  1.0000
  Zr  Zr191     1.0  0.50000  0.20000  0.70496  1.0000
  Zr  Zr192     1.0  0.50000  0.30000  0.63758  1.0000
  O   O565      1.0  0.41132  0.23953  0.66457  1.0000
  O   O566      1.0  0.58868  0.36047  0.74535  1.0000
  O   O567      1.0  0.58868  0.33953  0.67797  1.0000
  O   O568      1.0  0.41132  0.26047  0.73196  1.0000
  O   O569      1.0  0.48868  0.26047  0.73196  1.0000
  O   O570      1.0  0.51132  0.33953  0.67797  1.0000
  O   O571      1.0  0.51132  0.36047  0.74535  1.0000
  O   O572      1.0  0.48868  0.23953  0.66457  1.0000
  O   O573      1.0  0.45000  0.32137  0.64318  1.0000
  O   O574      1.0  0.55000  0.27863  0.76675  1.0000
  O   O575      1.0  0.55000  0.22137  0.69936  1.0000
  O   O576      1.0  0.45000  0.37863  0.71056  1.0000
  Ca  Ca193     1.0  0.55000  0.59729  0.24025  1.0000
  Ca  Ca194     1.0  0.45000  0.40271  0.36102  1.0000
  Ca  Ca195     1.0  0.45000  0.49729  0.29364  1.0000
  Ca  Ca196     1.0  0.55000  0.50271  0.30764  1.0000
  Zr  Zr193     1.0  0.40000  0.50000  0.23325  1.0000
  Zr  Zr194     1.0  0.40000  0.40000  0.30064  1.0000
  Zr  Zr195     1.0  0.50000  0.40000  0.30064  1.0000
  Zr  Zr196     1.0  0.50000  0.50000  0.23325  1.0000
  O   O577      1.0  0.41132  0.43953  0.26025  1.0000
  O   O578      1.0  0.58868  0.56047  0.34103  1.0000
  O   O579      1.0  0.58868  0.53953  0.27364  1.0000
  O   O580      1.0  0.41132  0.46047  0.32763  1.0000
  O   O581      1.0  0.48868  0.46047  0.32763  1.0000
  O   O582      1.0  0.51132  0.53953  0.27364  1.0000
  O   O583      1.0  0.51132  0.56047  0.34103  1.0000
  O   O584      1.0  0.48868  0.43953  0.26025  1.0000
  O   O585      1.0  0.45000  0.52137  0.23885  1.0000
  O   O586      1.0  0.55000  0.47863  0.36242  1.0000
  O   O587      1.0  0.55000  0.42137  0.29504  1.0000
  O   O588      1.0  0.45000  0.57863  0.30624  1.0000
  Ca  Ca197     1.0  0.55000  0.59729  0.37503  1.0000
  Ca  Ca198     1.0  0.45000  0.40271  0.49580  1.0000
  Ca  Ca199     1.0  0.45000  0.49729  0.42841  1.0000
  Ca  Ca200     1.0  0.55000  0.50271  0.44242  1.0000
  Zr  Zr197     1.0  0.40000  0.50000  0.36803  1.0000
  Zr  Zr198     1.0  0.40000  0.40000  0.43541  1.0000
  Zr  Zr199     1.0  0.50000  0.40000  0.43541  1.0000
  Zr  Zr200     1.0  0.50000  0.50000  0.36803  1.0000
  O   O589      1.0  0.41132  0.43953  0.39502  1.0000
  O   O590      1.0  0.58868  0.56047  0.47580  1.0000
  O   O591      1.0  0.58868  0.53953  0.40842  1.0000
  O   O592      1.0  0.41132  0.46047  0.46241  1.0000
  O   O593      1.0  0.48868  0.46047  0.46241  1.0000
  O   O594      1.0  0.51132  0.53953  0.40842  1.0000
  O   O595      1.0  0.51132  0.56047  0.47580  1.0000
  O   O596      1.0  0.48868  0.43953  0.39502  1.0000
  O   O597      1.0  0.45000  0.52137  0.37363  1.0000
  O   O598      1.0  0.55000  0.47863  0.49720  1.0000
  O   O599      1.0  0.55000  0.42137  0.42981  1.0000
  O   O600      1.0  0.45000  0.57863  0.44101  1.0000
  Ca  Ca201     1.0  0.55000  0.59729  0.50980  1.0000
  Ca  Ca202     1.0  0.45000  0.40271  0.63057  1.0000
  Ca  Ca203     1.0  0.45000  0.49729  0.56319  1.0000
  Ca  Ca204     1.0  0.55000  0.50271  0.57719  1.0000
  Zr  Zr201     1.0  0.40000  0.50000  0.50280  1.0000
  Zr  Zr202     1.0  0.40000  0.40000  0.57019  1.0000
  Zr  Zr203     1.0  0.50000  0.40000  0.57019  1.0000
  Zr  Zr204     1.0  0.50000  0.50000  0.50280  1.0000
  O   O601      1.0  0.41132  0.43953  0.52980  1.0000
  O   O602      1.0  0.58868  0.56047  0.61058  1.0000
  O   O603      1.0  0.58868  0.53953  0.54319  1.0000
  O   O604      1.0  0.41132  0.46047  0.59718  1.0000
  O   O605      1.0  0.48868  0.46047  0.59718  1.0000
  O   O606      1.0  0.51132  0.53953  0.54319  1.0000
  O   O607      1.0  0.51132  0.56047  0.61058  1.0000
  O   O608      1.0  0.48868  0.43953  0.52980  1.0000
  O   O609      1.0  0.45000  0.52137  0.50840  1.0000
  O   O610      1.0  0.55000  0.47863  0.63197  1.0000
  O   O611      1.0  0.55000  0.42137  0.56459  1.0000
  O   O612      1.0  0.45000  0.57863  0.57579  1.0000
  Ca  Ca205     1.0  0.55000  0.59729  0.64458  1.0000
  Ca  Ca206     1.0  0.45000  0.40271  0.76535  1.0000
  Ca  Ca207     1.0  0.45000  0.49729  0.69796  1.0000
  Ca  Ca208     1.0  0.55000  0.50271  0.71197  1.0000
  Zr  Zr205     1.0  0.40000  0.50000  0.63758  1.0000
  Zr  Zr206     1.0  0.40000  0.40000  0.70496  1.0000
  Zr  Zr207     1.0  0.50000  0.40000  0.70496  1.0000
  Zr  Zr208     1.0  0.50000  0.50000  0.63758  1.0000
  O   O613      1.0  0.41132  0.43953  0.66457  1.0000
  O   O614      1.0  0.58868  0.56047  0.74535  1.0000
  O   O615      1.0  0.58868  0.53953  0.67797  1.0000
  O   O616      1.0  0.41132  0.46047  0.73196  1.0000
  O   O617      1.0  0.48868  0.46047  0.73196  1.0000
  O   O618      1.0  0.51132  0.53953  0.67797  1.0000
  O   O619      1.0  0.51132  0.56047  0.74535  1.0000
  O   O620      1.0  0.48868  0.43953  0.66457  1.0000
  O   O621      1.0  0.45000  0.52137  0.64318  1.0000
  O   O622      1.0  0.55000  0.47863  0.76675  1.0000
  O   O623      1.0  0.55000  0.42137  0.69936  1.0000
  O   O624      1.0  0.45000  0.57863  0.71056  1.0000
  Ca  Ca209     1.0  0.55000  0.79729  0.24025  1.0000
  Ca  Ca210     1.0  0.45000  0.60271  0.36102  1.0000
  Ca  Ca211     1.0  0.45000  0.69729  0.29364  1.0000
  Ca  Ca212     1.0  0.55000  0.70271  0.30764  1.0000
  Zr  Zr209     1.0  0.40000  0.70000  0.23325  1.0000
  Zr  Zr210     1.0  0.40000  0.60000  0.30064  1.0000
  Zr  Zr211     1.0  0.50000  0.60000  0.30064  1.0000
  Zr  Zr212     1.0  0.50000  0.70000  0.23325  1.0000
  O   O625      1.0  0.41132  0.63953  0.26025  1.0000
  O   O626      1.0  0.58868  0.76047  0.34103  1.0000
  O   O627      1.0  0.58868  0.73953  0.27364  1.0000
  O   O628      1.0  0.41132  0.66047  0.32763  1.0000
  O   O629      1.0  0.48868  0.66047  0.32763  1.0000
  O   O630      1.0  0.51132  0.73953  0.27364  1.0000
  O   O631      1.0  0.51132  0.76047  0.34103  1.0000
  O   O632      1.0  0.48868  0.63953  0.26025  1.0000
  O   O633      1.0  0.45000  0.72137  0.23885  1.0000
  O   O634      1.0  0.55000  0.67863  0.36242  1.0000
  O   O635      1.0  0.55000  0.62137  0.29504  1.0000
  O   O636      1.0  0.45000  0.77863  0.30624  1.0000
  Ca  Ca213     1.0  0.55000  0.79729  0.37503  1.0000
  Ca  Ca214     1.0  0.45000  0.60271  0.49580  1.0000
  Ca  Ca215     1.0  0.45000  0.69729  0.42841  1.0000
  Ca  Ca216     1.0  0.55000  0.70271  0.44242  1.0000
  Zr  Zr213     1.0  0.40000  0.70000  0.36803  1.0000
  Zr  Zr214     1.0  0.40000  0.60000  0.43541  1.0000
  Zr  Zr215     1.0  0.50000  0.60000  0.43541  1.0000
  Zr  Zr216     1.0  0.50000  0.70000  0.36803  1.0000
  O   O637      1.0  0.41132  0.63953  0.39502  1.0000
  O   O638      1.0  0.58868  0.76047  0.47580  1.0000
  O   O639      1.0  0.58868  0.73953  0.40842  1.0000
  O   O640      1.0  0.41132  0.66047  0.46241  1.0000
  O   O641      1.0  0.48868  0.66047  0.46241  1.0000
  O   O642      1.0  0.51132  0.73953  0.40842  1.0000
  O   O643      1.0  0.51132  0.76047  0.47580  1.0000
  O   O644      1.0  0.48868  0.63953  0.39502  1.0000
  O   O645      1.0  0.45000  0.72137  0.37363  1.0000
  O   O646      1.0  0.55000  0.67863  0.49720  1.0000
  O   O647      1.0  0.55000  0.62137  0.42981  1.0000
  O   O648      1.0  0.45000  0.77863  0.44101  1.0000
  Ca  Ca217     1.0  0.55000  0.79729  0.50980  1.0000
  Ca  Ca218     1.0  0.45000  0.60271  0.63057  1.0000
  Ca  Ca219     1.0  0.45000  0.69729  0.56319  1.0000
  Ca  Ca220     1.0  0.55000  0.70271  0.57719  1.0000
  Zr  Zr217     1.0  0.40000  0.70000  0.50280  1.0000
  Zr  Zr218     1.0  0.40000  0.60000  0.57019  1.0000
  Zr  Zr219     1.0  0.50000  0.60000  0.57019  1.0000
  Zr  Zr220     1.0  0.50000  0.70000  0.50280  1.0000
  O   O649      1.0  0.41132  0.63953  0.52980  1.0000
  O   O650      1.0  0.58868  0.76047  0.61058  1.0000
  O   O651      1.0  0.58868  0.73953  0.54319  1.0000
  O   O652      1.0  0.41132  0.66047  0.59718  1.0000
  O   O653      1.0  0.48868  0.66047  0.59718  1.0000
  O   O654      1.0  0.51132  0.73953  0.54319  1.0000
  O   O655      1.0  0.51132  0.76047  0.61058  1.0000
  O   O656      1.0  0.48868  0.63953  0.52980  1.0000
  O   O657      1.0  0.45000  0.72137  0.50840  1.0000
  O   O658      1.0  0.55000  0.67863  0.63197  1.0000
  O   O659      1.0  0.55000  0.62137  0.56459  1.0000
  O   O660      1.0  0.45000  0.77863  0.57579  1.0000
  Ca  Ca221     1.0  0.55000  0.79729  0.64458  1.0000
  Ca  Ca222     1.0  0.45000  0.60271  0.76535  1.0000
  Ca  Ca223     1.0  0.45000  0.69729  0.69796  1.0000
  Ca  Ca224     1.0  0.55000  0.70271  0.71197  1.0000
  Zr  Zr221     1.0  0.40000  0.70000  0.63758  1.0000
  Zr  Zr222     1.0  0.40000  0.60000  0.70496  1.0000
  Zr  Zr223     1.0  0.50000  0.60000  0.70496  1.0000
  Zr  Zr224     1.0  0.50000  0.70000  0.63758  1.0000
  O   O661      1.0  0.41132  0.63953  0.66457  1.0000
  O   O662      1.0  0.58868  0.76047  0.74535  1.0000
  O   O663      1.0  0.58868  0.73953  0.67797  1.0000
  O   O664      1.0  0.41132  0.66047  0.73196  1.0000
  O   O665      1.0  0.48868  0.66047  0.73196  1.0000
  O   O666      1.0  0.51132  0.73953  0.67797  1.0000
  O   O667      1.0  0.51132  0.76047  0.74535  1.0000
  O   O668      1.0  0.48868  0.63953  0.66457  1.0000
  O   O669      1.0  0.45000  0.72137  0.64318  1.0000
  O   O670      1.0  0.55000  0.67863  0.76675  1.0000
  O   O671      1.0  0.55000  0.62137  0.69936  1.0000
  O   O672      1.0  0.45000  0.77863  0.71056  1.0000
  Ca  Ca225     1.0  0.55000  0.99729  0.24025  1.0000
  Ca  Ca226     1.0  0.45000  0.80271  0.36102  1.0000
  Ca  Ca227     1.0  0.45000  0.89729  0.29364  1.0000
  Ca  Ca228     1.0  0.55000  0.90271  0.30764  1.0000
  Zr  Zr225     1.0  0.40000  0.90000  0.23325  1.0000
  Zr  Zr226     1.0  0.40000  0.80000  0.30064  1.0000
  Zr  Zr227     1.0  0.50000  0.80000  0.30064  1.0000
  Zr  Zr228     1.0  0.50000  0.90000  0.23325  1.0000
  O   O673      1.0  0.41132  0.83953  0.26025  1.0000
  O   O674      1.0  0.58868  0.96047  0.34103  1.0000
  O   O675      1.0  0.58868  0.93953  0.27364  1.0000
  O   O676      1.0  0.41132  0.86047  0.32763  1.0000
  O   O677      1.0  0.48868  0.86047  0.32763  1.0000
  O   O678      1.0  0.51132  0.93953  0.27364  1.0000
  O   O679      1.0  0.51132  0.96047  0.34103  1.0000
  O   O680      1.0  0.48868  0.83953  0.26025  1.0000
  O   O681      1.0  0.45000  0.92137  0.23885  1.0000
  O   O682      1.0  0.55000  0.87863  0.36242  1.0000
  O   O683      1.0  0.55000  0.82137  0.29504  1.0000
  O   O684      1.0  0.45000  0.97863  0.30624  1.0000
  Ca  Ca229     1.0  0.55000  0.99729  0.37503  1.0000
  Ca  Ca230     1.0  0.45000  0.80271  0.49580  1.0000
  Ca  Ca231     1.0  0.45000  0.89729  0.42841  1.0000
  Ca  Ca232     1.0  0.55000  0.90271  0.44242  1.0000
  Zr  Zr229     1.0  0.40000  0.90000  0.36803  1.0000
  Zr  Zr230     1.0  0.40000  0.80000  0.43541  1.0000
  Zr  Zr231     1.0  0.50000  0.80000  0.43541  1.0000
  Zr  Zr232     1.0  0.50000  0.90000  0.36803  1.0000
  O   O685      1.0  0.41132  0.83953  0.39502  1.0000
  O   O686      1.0  0.58868  0.96047  0.47580  1.0000
  O   O687      1.0  0.58868  0.93953  0.40842  1.0000
  O   O688      1.0  0.41132  0.86047  0.46241  1.0000
  O   O689      1.0  0.48868  0.86047  0.46241  1.0000
  O   O690      1.0  0.51132  0.93953  0.40842  1.0000
  O   O691      1.0  0.51132  0.96047  0.47580  1.0000
  O   O692      1.0  0.48868  0.83953  0.39502  1.0000
  O   O693      1.0  0.45000  0.92137  0.37363  1.0000
  O   O694      1.0  0.55000  0.87863  0.49720  1.0000
  O   O695      1.0  0.55000  0.82137  0.42981  1.0000
  O   O696      1.0  0.45000  0.97863  0.44101  1.0000
  Ca  Ca233     1.0  0.55000  0.99729  0.50980  1.0000
  Ca  Ca234     1.0  0.45000  0.80271  0.63057  1.0000
  Ca  Ca235     1.0  0.45000  0.89729  0.56319  1.0000
  Ca  Ca236     1.0  0.55000  0.90271  0.57719  1.0000
  Zr  Zr233     1.0  0.40000  0.90000  0.50280  1.0000
  Zr  Zr234     1.0  0.40000  0.80000  0.57019  1.0000
  Zr  Zr235     1.0  0.50000  0.80000  0.57019  1.0000
  Zr  Zr236     1.0  0.50000  0.90000  0.50280  1.0000
  O   O697      1.0  0.41132  0.83953  0.52980  1.0000
  O   O698      1.0  0.58868  0.96047  0.61058  1.0000
  O   O699      1.0  0.58868  0.93953  0.54319  1.0000
  O   O700      1.0  0.41132  0.86047  0.59718  1.0000
  O   O701      1.0  0.48868  0.86047  0.59718  1.0000
  O   O702      1.0  0.51132  0.93953  0.54319  1.0000
  O   O703      1.0  0.51132  0.96047  0.61058  1.0000
  O   O704      1.0  0.48868  0.83953  0.52980  1.0000
  O   O705      1.0  0.45000  0.92137  0.50840  1.0000
  O   O706      1.0  0.55000  0.87863  0.63197  1.0000
  O   O707      1.0  0.55000  0.82137  0.56459  1.0000
  O   O708      1.0  0.45000  0.97863  0.57579  1.0000
  Ca  Ca237     1.0  0.55000  0.99729  0.64458  1.0000
  Ca  Ca238     1.0  0.45000  0.80271  0.76535  1.0000
  Ca  Ca239     1.0  0.45000  0.89729  0.69796  1.0000
  Ca  Ca240     1.0  0.55000  0.90271  0.71197  1.0000
  Zr  Zr237     1.0  0.40000  0.90000  0.63758  1.0000
  Zr  Zr238     1.0  0.40000  0.80000  0.70496  1.0000
  Zr  Zr239     1.0  0.50000  0.80000  0.70496  1.0000
  Zr  Zr240     1.0  0.50000  0.90000  0.63758  1.0000
  O   O709      1.0  0.41132  0.83953  0.66457  1.0000
  O   O710      1.0  0.58868  0.96047  0.74535  1.0000
  O   O711      1.0  0.58868  0.93953  0.67797  1.0000
  O   O712      1.0  0.41132  0.86047  0.73196  1.0000
  O   O713      1.0  0.48868  0.86047  0.73196  1.0000
  O   O714      1.0  0.51132  0.93953  0.67797  1.0000
  O   O715      1.0  0.51132  0.96047  0.74535  1.0000
  O   O716      1.0  0.48868  0.83953  0.66457  1.0000
  O   O717      1.0  0.45000  0.92137  0.64318  1.0000
  O   O718      1.0  0.55000  0.87863  0.76675  1.0000
  O   O719      1.0  0.55000  0.82137  0.69936  1.0000
  O   O720      1.0  0.45000  0.97863  0.71056  1.0000
  Ca  Ca241     1.0  0.75000  0.19729  0.24025  1.0000
  Ca  Ca242     1.0  0.65000  0.00271  0.36102  1.0000
  Ca  Ca243     1.0  0.65000  0.09729  0.29364  1.0000
  Ca  Ca244     1.0  0.75000  0.10271  0.30764  1.0000
  Zr  Zr241     1.0  0.60000  0.10000  0.23325  1.0000
  Zr  Zr242     1.0  0.60000  0.00000  0.30064  1.0000
  Zr  Zr243     1.0  0.70000  0.00000  0.30064  1.0000
  Zr  Zr244     1.0  0.70000  0.10000  0.23325  1.0000
  O   O721      1.0  0.61132  0.03953  0.26025  1.0000
  O   O722      1.0  0.78868  0.16047  0.34103  1.0000
  O   O723      1.0  0.78868  0.13953  0.27364  1.0000
  O   O724      1.0  0.61132  0.06047  0.32763  1.0000
  O   O725      1.0  0.68868  0.06047  0.32763  1.0000
  O   O726      1.0  0.71132  0.13953  0.27364  1.0000
  O   O727      1.0  0.71132  0.16047  0.34103  1.0000
  O   O728      1.0  0.68868  0.03953  0.26025  1.0000
  O   O729      1.0  0.65000  0.12137  0.23885  1.0000
  O   O730      1.0  0.75000  0.07863  0.36242  1.0000
  O   O731      1.0  0.75000  0.02137  0.29504  1.0000
  O   O732      1.0  0.65000  0.17863  0.30624  1.0000
  Ca  Ca245     1.0  0.75000  0.19729  0.37503  1.0000
  Ca  Ca246     1.0  0.65000  0.00271  0.49580  1.0000
  Ca  Ca247     1.0  0.65000  0.09729  0.42841  1.0000
  Ca  Ca248     1.0  0.75000  0.10271  0.44242  1.0000
  Zr  Zr245     1.0  0.60000  0.10000  0.36803  1.0000
  Zr  Zr246     1.0  0.60000  0.00000  0.43541  1.0000
  Zr  Zr247     1.0  0.70000  0.00000  0.43541  1.0000
  Zr  Zr248     1.0  0.70000  0.10000  0.36803  1.0000
  O   O733      1.0  0.61132  0.03953  0.39502  1.0000
  O   O734      1.0  0.78868  0.16047  0.47580  1.0000
  O   O735      1.0  0.78868  0.13953  0.40842  1.0000
  O   O736      1.0  0.61132  0.06047  0.46241  1.0000
  O   O737      1.0  0.68868  0.06047  0.46241  1.0000
  O   O738      1.0  0.71132  0.13953  0.40842  1.0000
  O   O739      1.0  0.71132  0.16047  0.47580  1.0000
  O   O740      1.0  0.68868  0.03953  0.39502  1.0000
  O   O741      1.0  0.65000  0.12137  0.37363  1.0000
  O   O742      1.0  0.75000  0.07863  0.49720  1.0000
  O   O743      1.0  0.75000  0.02137  0.42981  1.0000
  O   O744      1.0  0.65000  0.17863  0.44101  1.0000
  Ca  Ca249     1.0  0.75000  0.19729  0.50980  1.0000
  Ca  Ca250     1.0  0.65000  0.00271  0.63057  1.0000
  Ca  Ca251     1.0  0.65000  0.09729  0.56319  1.0000
  Ca  Ca252     1.0  0.75000  0.10271  0.57719  1.0000
  Zr  Zr249     1.0  0.60000  0.10000  0.50280  1.0000
  Zr  Zr250     1.0  0.60000  0.00000  0.57019  1.0000
  Zr  Zr251     1.0  0.70000  0.00000  0.57019  1.0000
  Zr  Zr252     1.0  0.70000  0.10000  0.50280  1.0000
  O   O745      1.0  0.61132  0.03953  0.52980  1.0000
  O   O746      1.0  0.78868  0.16047  0.61058  1.0000
  O   O747      1.0  0.78868  0.13953  0.54319  1.0000
  O   O748      1.0  0.61132  0.06047  0.59718  1.0000
  O   O749      1.0  0.68868  0.06047  0.59718  1.0000
  O   O750      1.0  0.71132  0.13953  0.54319  1.0000
  O   O751      1.0  0.71132  0.16047  0.61058  1.0000
  O   O752      1.0  0.68868  0.03953  0.52980  1.0000
  O   O753      1.0  0.65000  0.12137  0.50840  1.0000
  O   O754      1.0  0.75000  0.07863  0.63197  1.0000
  O   O755      1.0  0.75000  0.02137  0.56459  1.0000
  O   O756      1.0  0.65000  0.17863  0.57579  1.0000
  Ca  Ca253     1.0  0.75000  0.19729  0.64458  1.0000
  Ca  Ca254     1.0  0.65000  0.00271  0.76535  1.0000
  Ca  Ca255     1.0  0.65000  0.09729  0.69796  1.0000
  Ca  Ca256     1.0  0.75000  0.10271  0.71197  1.0000
  Zr  Zr253     1.0  0.60000  0.10000  0.63758  1.0000
  Zr  Zr254     1.0  0.60000  0.00000  0.70496  1.0000
  Zr  Zr255     1.0  0.70000  0.00000  0.70496  1.0000
  Zr  Zr256     1.0  0.70000  0.10000  0.63758  1.0000
  O   O757      1.0  0.61132  0.03953  0.66457  1.0000
  O   O758      1.0  0.78868  0.16047  0.74535  1.0000
  O   O759      1.0  0.78868  0.13953  0.67797  1.0000
  O   O760      1.0  0.61132  0.06047  0.73196  1.0000
  O   O761      1.0  0.68868  0.06047  0.73196  1.0000
  O   O762      1.0  0.71132  0.13953  0.67797  1.0000
  O   O763      1.0  0.71132  0.16047  0.74535  1.0000
  O   O764      1.0  0.68868  0.03953  0.66457  1.0000
  O   O765      1.0  0.65000  0.12137  0.64318  1.0000
  O   O766      1.0  0.75000  0.07863  0.76675  1.0000
  O   O767      1.0  0.75000  0.02137  0.69936  1.0000
  O   O768      1.0  0.65000  0.17863  0.71056  1.0000
  Ca  Ca257     1.0  0.75000  0.39729  0.24025  1.0000
  Ca  Ca258     1.0  0.65000  0.20271  0.36102  1.0000
  Ca  Ca259     1.0  0.65000  0.29729  0.29364  1.0000
  Ca  Ca260     1.0  0.75000  0.30271  0.30764  1.0000
  Zr  Zr257     1.0  0.60000  0.30000  0.23325  1.0000
  Zr  Zr258     1.0  0.60000  0.20000  0.30064  1.0000
  Zr  Zr259     1.0  0.70000  0.20000  0.30064  1.0000
  Zr  Zr260     1.0  0.70000  0.30000  0.23325  1.0000
  O   O769      1.0  0.61132  0.23953  0.26025  1.0000
  O   O770      1.0  0.78868  0.36047  0.34103  1.0000
  O   O771      1.0  0.78868  0.33953  0.27364  1.0000
  O   O772      1.0  0.61132  0.26047  0.32763  1.0000
  O   O773      1.0  0.68868  0.26047  0.32763  1.0000
  O   O774      1.0  0.71132  0.33953  0.27364  1.0000
  O   O775      1.0  0.71132  0.36047  0.34103  1.0000
  O   O776      1.0  0.68868  0.23953  0.26025  1.0000
  O   O777      1.0  0.65000  0.32137  0.23885  1.0000
  O   O778      1.0  0.75000  0.27863  0.36242  1.0000
  O   O779      1.0  0.75000  0.22137  0.29504  1.0000
  O   O780      1.0  0.65000  0.37863  0.30624  1.0000
  Ca  Ca261     1.0  0.75000  0.39729  0.37503  1.0000
  Ca  Ca262     1.0  0.65000  0.20271  0.49580  1.0000
  Ca  Ca263     1.0  0.65000  0.29729  0.42841  1.0000
  Ca  Ca264     1.0  0.75000  0.30271  0.44242  1.0000
  Zr  Zr261     1.0  0.60000  0.30000  0.36803  1.0000
  Zr  Zr262     1.0  0.60000  0.20000  0.43541  1.0000
  Zr  Zr263     1.0  0.70000  0.20000  0.43541  1.0000
  Zr  Zr264     1.0  0.70000  0.30000  0.36803  1.0000
  O   O781      1.0  0.61132  0.23953  0.39502  1.0000
  O   O782      1.0  0.78868  0.36047  0.47580  1.0000
  O   O783      1.0  0.78868  0.33953  0.40842  1.0000
  O   O784      1.0  0.61132  0.26047  0.46241  1.0000
  O   O785      1.0  0.68868  0.26047  0.46241  1.0000
  O   O786      1.0  0.71132  0.33953  0.40842  1.0000
  O   O787      1.0  0.71132  0.36047  0.47580  1.0000
  O   O788      1.0  0.68868  0.23953  0.39502  1.0000
  O   O789      1.0  0.65000  0.32137  0.37363  1.0000
  O   O790      1.0  0.75000  0.27863  0.49720  1.0000
  O   O791      1.0  0.75000  0.22137  0.42981  1.0000
  O   O792      1.0  0.65000  0.37863  0.44101  1.0000
  Ca  Ca265     1.0  0.75000  0.39729  0.50980  1.0000
  Ca  Ca266     1.0  0.65000  0.20271  0.63057  1.0000
  Ca  Ca267     1.0  0.65000  0.29729  0.56319  1.0000
  Ca  Ca268     1.0  0.75000  0.30271  0.57719  1.0000
  Zr  Zr265     1.0  0.60000  0.30000  0.50280  1.0000
  Zr  Zr266     1.0  0.60000  0.20000  0.57019  1.0000
  Zr  Zr267     1.0  0.70000  0.20000  0.57019  1.0000
  Zr  Zr268     1.0  0.70000  0.30000  0.50280  1.0000
  O   O793      1.0  0.61132  0.23953  0.52980  1.0000
  O   O794      1.0  0.78868  0.36047  0.61058  1.0000
  O   O795      1.0  0.78868  0.33953  0.54319  1.0000
  O   O796      1.0  0.61132  0.26047  0.59718  1.0000
  O   O797      1.0  0.68868  0.26047  0.59718  1.0000
  O   O798      1.0  0.71132  0.33953  0.54319  1.0000
  O   O799      1.0  0.71132  0.36047  0.61058  1.0000
  O   O800      1.0  0.68868  0.23953  0.52980  1.0000
  O   O801      1.0  0.65000  0.32137  0.50840  1.0000
  O   O802      1.0  0.75000  0.27863  0.63197  1.0000
  O   O803      1.0  0.75000  0.22137  0.56459  1.0000
  O   O804      1.0  0.65000  0.37863  0.57579  1.0000
  Ca  Ca269     1.0  0.75000  0.39729  0.64458  1.0000
  Ca  Ca270     1.0  0.65000  0.20271  0.76535  1.0000
  Ca  Ca271     1.0  0.65000  0.29729  0.69796  1.0000
  Ca  Ca272     1.0  0.75000  0.30271  0.71197  1.0000
  Zr  Zr269     1.0  0.60000  0.30000  0.63758  1.0000
  Zr  Zr270     1.0  0.60000  0.20000  0.70496  1.0000
  Zr  Zr271     1.0  0.70000  0.20000  0.70496  1.0000
  Zr  Zr272     1.0  0.70000  0.30000  0.63758  1.0000
  O   O805      1.0  0.61132  0.23953  0.66457  1.0000
  O   O806      1.0  0.78868  0.36047  0.74535  1.0000
  O   O807      1.0  0.78868  0.33953  0.67797  1.0000
  O   O808      1.0  0.61132  0.26047  0.73196  1.0000
  O   O809      1.0  0.68868  0.26047  0.73196  1.0000
  O   O810      1.0  0.71132  0.33953  0.67797  1.0000
  O   O811      1.0  0.71132  0.36047  0.74535  1.0000
  O   O812      1.0  0.68868  0.23953  0.66457  1.0000
  O   O813      1.0  0.65000  0.32137  0.64318  1.0000
  O   O814      1.0  0.75000  0.27863  0.76675  1.0000
  O   O815      1.0  0.75000  0.22137  0.69936  1.0000
  O   O816      1.0  0.65000  0.37863  0.71056  1.0000
  Ca  Ca273     1.0  0.75000  0.59729  0.24025  1.0000
  Ca  Ca274     1.0  0.65000  0.40271  0.36102  1.0000
  Ca  Ca275     1.0  0.65000  0.49729  0.29364  1.0000
  Ca  Ca276     1.0  0.75000  0.50271  0.30764  1.0000
  Zr  Zr273     1.0  0.60000  0.50000  0.23325  1.0000
  Zr  Zr274     1.0  0.60000  0.40000  0.30064  1.0000
  Zr  Zr275     1.0  0.70000  0.40000  0.30064  1.0000
  Zr  Zr276     1.0  0.70000  0.50000  0.23325  1.0000
  O   O817      1.0  0.61132  0.43953  0.26025  1.0000
  O   O818      1.0  0.78868  0.56047  0.34103  1.0000
  O   O819      1.0  0.78868  0.53953  0.27364  1.0000
  O   O820      1.0  0.61132  0.46047  0.32763  1.0000
  O   O821      1.0  0.68868  0.46047  0.32763  1.0000
  O   O822      1.0  0.71132  0.53953  0.27364  1.0000
  O   O823      1.0  0.71132  0.56047  0.34103  1.0000
  O   O824      1.0  0.68868  0.43953  0.26025  1.0000
  O   O825      1.0  0.65000  0.52137  0.23885  1.0000
  O   O826      1.0  0.75000  0.47863  0.36242  1.0000
  O   O827      1.0  0.75000  0.42137  0.29504  1.0000
  O   O828      1.0  0.65000  0.57863  0.30624  1.0000
  Ca  Ca277     1.0  0.75000  0.59729  0.37503  1.0000
  Ca  Ca278     1.0  0.65000  0.40271  0.49580  1.0000
  Ca  Ca279     1.0  0.65000  0.49729  0.42841  1.0000
  Ca  Ca280     1.0  0.75000  0.50271  0.44242  1.0000
  Zr  Zr277     1.0  0.60000  0.50000  0.36803  1.0000
  Zr  Zr278     1.0  0.60000  0.40000  0.43541  1.0000
  Zr  Zr279     1.0  0.70000  0.40000  0.43541  1.0000
  Zr  Zr280     1.0  0.70000  0.50000  0.36803  1.0000
  O   O829      1.0  0.61132  0.43953  0.39502  1.0000
  O   O830      1.0  0.78868  0.56047  0.47580  1.0000
  O   O831      1.0  0.78868  0.53953  0.40842  1.0000
  O   O832      1.0  0.61132  0.46047  0.46241  1.0000
  O   O833      1.0  0.68868  0.46047  0.46241  1.0000
  O   O834      1.0  0.71132  0.53953  0.40842  1.0000
  O   O835      1.0  0.71132  0.56047  0.47580  1.0000
  O   O836      1.0  0.68868  0.43953  0.39502  1.0000
  O   O837      1.0  0.65000  0.52137  0.37363  1.0000
  O   O838      1.0  0.75000  0.47863  0.49720  1.0000
  O   O839      1.0  0.75000  0.42137  0.42981  1.0000
  O   O840      1.0  0.65000  0.57863  0.44101  1.0000
  Ca  Ca281     1.0  0.75000  0.59729  0.50980  1.0000
  Ca  Ca282     1.0  0.65000  0.40271  0.63057  1.0000
  Ca  Ca283     1.0  0.65000  0.49729  0.56319  1.0000
  Ca  Ca284     1.0  0.75000  0.50271  0.57719  1.0000
  Zr  Zr281     1.0  0.60000  0.50000  0.50280  1.0000
  Zr  Zr282     1.0  0.60000  0.40000  0.57019  1.0000
  Zr  Zr283     1.0  0.70000  0.40000  0.57019  1.0000
  Zr  Zr284     1.0  0.70000  0.50000  0.50280  1.0000
  O   O841      1.0  0.61132  0.43953  0.52980  1.0000
  O   O842      1.0  0.78868  0.56047  0.61058  1.0000
  O   O843      1.0  0.78868  0.53953  0.54319  1.0000
  O   O844      1.0  0.61132  0.46047  0.59718  1.0000
  O   O845      1.0  0.68868  0.46047  0.59718  1.0000
  O   O846      1.0  0.71132  0.53953  0.54319  1.0000
  O   O847      1.0  0.71132  0.56047  0.61058  1.0000
  O   O848      1.0  0.68868  0.43953  0.52980  1.0000
  O   O849      1.0  0.65000  0.52137  0.50840  1.0000
  O   O850      1.0  0.75000  0.47863  0.63197  1.0000
  O   O851      1.0  0.75000  0.42137  0.56459  1.0000
  O   O852      1.0  0.65000  0.57863  0.57579  1.0000
  Ca  Ca285     1.0  0.75000  0.59729  0.64458  1.0000
  Ca  Ca286     1.0  0.65000  0.40271  0.76535  1.0000
  Ca  Ca287     1.0  0.65000  0.49729  0.69796  1.0000
  Ca  Ca288     1.0  0.75000  0.50271  0.71197  1.0000
  Zr  Zr285     1.0  0.60000  0.50000  0.63758  1.0000
  Zr  Zr286     1.0  0.60000  0.40000  0.70496  1.0000
  Zr  Zr287     1.0  0.70000  0.40000  0.70496  1.0000
  Zr  Zr288     1.0  0.70000  0.50000  0.63758  1.0000
  O   O853      1.0  0.61132  0.43953  0.66457  1.0000
  O   O854      1.0  0.78868  0.56047  0.74535  1.0000
  O   O855      1.0  0.78868  0.53953  0.67797  1.0000
  O   O856      1.0  0.61132  0.46047  0.73196  1.0000
  O   O857      1.0  0.68868  0.46047  0.73196  1.0000
  O   O858      1.0  0.71132  0.53953  0.67797  1.0000
  O   O859      1.0  0.71132  0.56047  0.74535  1.0000
  O   O860      1.0  0.68868  0.43953  0.66457  1.0000
  O   O861      1.0  0.65000  0.52137  0.64318  1.0000
  O   O862      1.0  0.75000  0.47863  0.76675  1.0000
  O   O863      1.0  0.75000  0.42137  0.69936  1.0000
  O   O864      1.0  0.65000  0.57863  0.71056  1.0000
  Ca  Ca289     1.0  0.75000  0.79729  0.24025  1.0000
  Ca  Ca290     1.0  0.65000  0.60271  0.36102  1.0000
  Ca  Ca291     1.0  0.65000  0.69729  0.29364  1.0000
  Ca  Ca292     1.0  0.75000  0.70271  0.30764  1.0000
  Zr  Zr289     1.0  0.60000  0.70000  0.23325  1.0000
  Zr  Zr290     1.0  0.60000  0.60000  0.30064  1.0000
  Zr  Zr291     1.0  0.70000  0.60000  0.30064  1.0000
  Zr  Zr292     1.0  0.70000  0.70000  0.23325  1.0000
  O   O865      1.0  0.61132  0.63953  0.26025  1.0000
  O   O866      1.0  0.78868  0.76047  0.34103  1.0000
  O   O867      1.0  0.78868  0.73953  0.27364  1.0000
  O   O868      1.0  0.61132  0.66047  0.32763  1.0000
  O   O869      1.0  0.68868  0.66047  0.32763  1.0000
  O   O870      1.0  0.71132  0.73953  0.27364  1.0000
  O   O871      1.0  0.71132  0.76047  0.34103  1.0000
  O   O872      1.0  0.68868  0.63953  0.26025  1.0000
  O   O873      1.0  0.65000  0.72137  0.23885  1.0000
  O   O874      1.0  0.75000  0.67863  0.36242  1.0000
  O   O875      1.0  0.75000  0.62137  0.29504  1.0000
  O   O876      1.0  0.65000  0.77863  0.30624  1.0000
  Ca  Ca293     1.0  0.75000  0.79729  0.37503  1.0000
  Ca  Ca294     1.0  0.65000  0.60271  0.49580  1.0000
  Ca  Ca295     1.0  0.65000  0.69729  0.42841  1.0000
  Ca  Ca296     1.0  0.75000  0.70271  0.44242  1.0000
  Zr  Zr293     1.0  0.60000  0.70000  0.36803  1.0000
  Zr  Zr294     1.0  0.60000  0.60000  0.43541  1.0000
  Zr  Zr295     1.0  0.70000  0.60000  0.43541  1.0000
  Zr  Zr296     1.0  0.70000  0.70000  0.36803  1.0000
  O   O877      1.0  0.61132  0.63953  0.39502  1.0000
  O   O878      1.0  0.78868  0.76047  0.47580  1.0000
  O   O879      1.0  0.78868  0.73953  0.40842  1.0000
  O   O880      1.0  0.61132  0.66047  0.46241  1.0000
  O   O881      1.0  0.68868  0.66047  0.46241  1.0000
  O   O882      1.0  0.71132  0.73953  0.40842  1.0000
  O   O883      1.0  0.71132  0.76047  0.47580  1.0000
  O   O884      1.0  0.68868  0.63953  0.39502  1.0000
  O   O885      1.0  0.65000  0.72137  0.37363  1.0000
  O   O886      1.0  0.75000  0.67863  0.49720  1.0000
  O   O887      1.0  0.75000  0.62137  0.42981  1.0000
  O   O888      1.0  0.65000  0.77863  0.44101  1.0000
  Ca  Ca297     1.0  0.75000  0.79729  0.50980  1.0000
  Ca  Ca298     1.0  0.65000  0.60271  0.63057  1.0000
  Ca  Ca299     1.0  0.65000  0.69729  0.56319  1.0000
  Ca  Ca300     1.0  0.75000  0.70271  0.57719  1.0000
  Zr  Zr297     1.0  0.60000  0.70000  0.50280  1.0000
  Zr  Zr298     1.0  0.60000  0.60000  0.57019  1.0000
  Zr  Zr299     1.0  0.70000  0.60000  0.57019  1.0000
  Zr  Zr300     1.0  0.70000  0.70000  0.50280  1.0000
  O   O889      1.0  0.61132  0.63953  0.52980  1.0000
  O   O890      1.0  0.78868  0.76047  0.61058  1.0000
  O   O891      1.0  0.78868  0.73953  0.54319  1.0000
  O   O892      1.0  0.61132  0.66047  0.59718  1.0000
  O   O893      1.0  0.68868  0.66047  0.59718  1.0000
  O   O894      1.0  0.71132  0.73953  0.54319  1.0000
  O   O895      1.0  0.71132  0.76047  0.61058  1.0000
  O   O896      1.0  0.68868  0.63953  0.52980  1.0000
  O   O897      1.0  0.65000  0.72137  0.50840  1.0000
  O   O898      1.0  0.75000  0.67863  0.63197  1.0000
  O   O899      1.0  0.75000  0.62137  0.56459  1.0000
  O   O900      1.0  0.65000  0.77863  0.57579  1.0000
  Ca  Ca301     1.0  0.75000  0.79729  0.64458  1.0000
  Ca  Ca302     1.0  0.65000  0.60271  0.76535  1.0000
  Ca  Ca303     1.0  0.65000  0.69729  0.69796  1.0000
  Ca  Ca304     1.0  0.75000  0.70271  0.71197  1.0000
  Zr  Zr301     1.0  0.60000  0.70000  0.63758  1.0000
  Zr  Zr302     1.0  0.60000  0.60000  0.70496  1.0000
  Zr  Zr303     1.0  0.70000  0.60000  0.70496  1.0000
  Zr  Zr304     1.0  0.70000  0.70000  0.63758  1.0000
  O   O901      1.0  0.61132  0.63953  0.66457  1.0000
  O   O902      1.0  0.78868  0.76047  0.74535  1.0000
  O   O903      1.0  0.78868  0.73953  0.67797  1.0000
  O   O904      1.0  0.61132  0.66047  0.73196  1.0000
  O   O905      1.0  0.68868  0.66047  0.73196  1.0000
  O   O906      1.0  0.71132  0.73953  0.67797  1.0000
  O   O907      1.0  0.71132  0.76047  0.74535  1.0000
  O   O908      1.0  0.68868  0.63953  0.66457  1.0000
  O   O909      1.0  0.65000  0.72137  0.64318  1.0000
  O   O910      1.0  0.75000  0.67863  0.76675  1.0000
  O   O911      1.0  0.75000  0.62137  0.69936  1.0000
  O   O912      1.0  0.65000  0.77863  0.71056  1.0000
  Ca  Ca305     1.0  0.75000  0.99729  0.24025  1.0000
  Ca  Ca306     1.0  0.65000  0.80271  0.36102  1.0000
  Ca  Ca307     1.0  0.65000  0.89729  0.29364  1.0000
  Ca  Ca308     1.0  0.75000  0.90271  0.30764  1.0000
  Zr  Zr305     1.0  0.60000  0.90000  0.23325  1.0000
  Zr  Zr306     1.0  0.60000  0.80000  0.30064  1.0000
  Zr  Zr307     1.0  0.70000  0.80000  0.30064  1.0000
  Zr  Zr308     1.0  0.70000  0.90000  0.23325  1.0000
  O   O913      1.0  0.61132  0.83953  0.26025  1.0000
  O   O914      1.0  0.78868  0.96047  0.34103  1.0000
  O   O915      1.0  0.78868  0.93953  0.27364  1.0000
  O   O916      1.0  0.61132  0.86047  0.32763  1.0000
  O   O917      1.0  0.68868  0.86047  0.32763  1.0000
  O   O918      1.0  0.71132  0.93953  0.27364  1.0000
  O   O919      1.0  0.71132  0.96047  0.34103  1.0000
  O   O920      1.0  0.68868  0.83953  0.26025  1.0000
  O   O921      1.0  0.65000  0.92137  0.23885  1.0000
  O   O922      1.0  0.75000  0.87863  0.36242  1.0000
  O   O923      1.0  0.75000  0.82137  0.29504  1.0000
  O   O924      1.0  0.65000  0.97863  0.30624  1.0000
  Ca  Ca309     1.0  0.75000  0.99729  0.37503  1.0000
  Ca  Ca310     1.0  0.65000  0.80271  0.49580  1.0000
  Ca  Ca311     1.0  0.65000  0.89729  0.42841  1.0000
  Ca  Ca312     1.0  0.75000  0.90271  0.44242  1.0000
  Zr  Zr309     1.0  0.60000  0.90000  0.36803  1.0000
  Zr  Zr310     1.0  0.60000  0.80000  0.43541  1.0000
  Zr  Zr311     1.0  0.70000  0.80000  0.43541  1.0000
  Zr  Zr312     1.0  0.70000  0.90000  0.36803  1.0000
  O   O925      1.0  0.61132  0.83953  0.39502  1.0000
  O   O926      1.0  0.78868  0.96047  0.47580  1.0000
  O   O927      1.0  0.78868  0.93953  0.40842  1.0000
  O   O928      1.0  0.61132  0.86047  0.46241  1.0000
  O   O929      1.0  0.68868  0.86047  0.46241  1.0000
  O   O930      1.0  0.71132  0.93953  0.40842  1.0000
  O   O931      1.0  0.71132  0.96047  0.47580  1.0000
  O   O932      1.0  0.68868  0.83953  0.39502  1.0000
  O   O933      1.0  0.65000  0.92137  0.37363  1.0000
  O   O934      1.0  0.75000  0.87863  0.49720  1.0000
  O   O935      1.0  0.75000  0.82137  0.42981  1.0000
  O   O936      1.0  0.65000  0.97863  0.44101  1.0000
  Ca  Ca313     1.0  0.75000  0.99729  0.50980  1.0000
  Ca  Ca314     1.0  0.65000  0.80271  0.63057  1.0000
  Ca  Ca315     1.0  0.65000  0.89729  0.56319  1.0000
  Ca  Ca316     1.0  0.75000  0.90271  0.57719  1.0000
  Zr  Zr313     1.0  0.60000  0.90000  0.50280  1.0000
  Zr  Zr314     1.0  0.60000  0.80000  0.57019  1.0000
  Zr  Zr315     1.0  0.70000  0.80000  0.57019  1.0000
  Zr  Zr316     1.0  0.70000  0.90000  0.50280  1.0000
  O   O937      1.0  0.61132  0.83953  0.52980  1.0000
  O   O938      1.0  0.78868  0.96047  0.61058  1.0000
  O   O939      1.0  0.78868  0.93953  0.54319  1.0000
  O   O940      1.0  0.61132  0.86047  0.59718  1.0000
  O   O941      1.0  0.68868  0.86047  0.59718  1.0000
  O   O942      1.0  0.71132  0.93953  0.54319  1.0000
  O   O943      1.0  0.71132  0.96047  0.61058  1.0000
  O   O944      1.0  0.68868  0.83953  0.52980  1.0000
  O   O945      1.0  0.65000  0.92137  0.50840  1.0000
  O   O946      1.0  0.75000  0.87863  0.63197  1.0000
  O   O947      1.0  0.75000  0.82137  0.56459  1.0000
  O   O948      1.0  0.65000  0.97863  0.57579  1.0000
  Ca  Ca317     1.0  0.75000  0.99729  0.64458  1.0000
  Ca  Ca318     1.0  0.65000  0.80271  0.76535  1.0000
  Ca  Ca319     1.0  0.65000  0.89729  0.69796  1.0000
  Ca  Ca320     1.0  0.75000  0.90271  0.71197  1.0000
  Zr  Zr317     1.0  0.60000  0.90000  0.63758  1.0000
  Zr  Zr318     1.0  0.60000  0.80000  0.70496  1.0000
  Zr  Zr319     1.0  0.70000  0.80000  0.70496  1.0000
  Zr  Zr320     1.0  0.70000  0.90000  0.63758  1.0000
  O   O949      1.0  0.61132  0.83953  0.66457  1.0000
  O   O950      1.0  0.78868  0.96047  0.74535  1.0000
  O   O951      1.0  0.78868  0.93953  0.67797  1.0000
  O   O952      1.0  0.61132  0.86047  0.73196  1.0000
  O   O953      1.0  0.68868  0.86047  0.73196  1.0000
  O   O954      1.0  0.71132  0.93953  0.67797  1.0000
  O   O955      1.0  0.71132  0.96047  0.74535  1.0000
  O   O956      1.0  0.68868  0.83953  0.66457  1.0000
  O   O957      1.0  0.65000  0.92137  0.64318  1.0000
  O   O958      1.0  0.75000  0.87863  0.76675  1.0000
  O   O959      1.0  0.75000  0.82137  0.69936  1.0000
  O   O960      1.0  0.65000  0.97863  0.71056  1.0000
  Ca  Ca321     1.0  0.95000  0.19729  0.24025  1.0000
  Ca  Ca322     1.0  0.85000  0.00271  0.36102  1.0000
  Ca  Ca323     1.0  0.85000  0.09729  0.29364  1.0000
  Ca  Ca324     1.0  0.95000  0.10271  0.30764  1.0000
  Zr  Zr321     1.0  0.80000  0.10000  0.23325  1.0000
  Zr  Zr322     1.0  0.80000  0.00000  0.30064  1.0000
  Zr  Zr323     1.0  0.90000  0.00000  0.30064  1.0000
  Zr  Zr324     1.0  0.90000  0.10000  0.23325  1.0000
  O   O961      1.0  0.81132  0.03953  0.26025  1.0000
  O   O962      1.0  0.98868  0.16047  0.34103  1.0000
  O   O963      1.0  0.98868  0.13953  0.27364  1.0000
  O   O964      1.0  0.81132  0.06047  0.32763  1.0000
  O   O965      1.0  0.88868  0.06047  0.32763  1.0000
  O   O966      1.0  0.91132  0.13953  0.27364  1.0000
  O   O967      1.0  0.91132  0.16047  0.34103  1.0000
  O   O968      1.0  0.88868  0.03953  0.26025  1.0000
  O   O969      1.0  0.85000  0.12137  0.23885  1.0000
  O   O970      1.0  0.95000  0.07863  0.36242  1.0000
  O   O971      1.0  0.95000  0.02137  0.29504  1.0000
  O   O972      1.0  0.85000  0.17863  0.30624  1.0000
  Ca  Ca325     1.0  0.95000  0.19729  0.37503  1.0000
  Ca  Ca326     1.0  0.85000  0.00271  0.49580  1.0000
  Ca  Ca327     1.0  0.85000  0.09729  0.42841  1.0000
  Ca  Ca328     1.0  0.95000  0.10271  0.44242  1.0000
  Zr  Zr325     1.0  0.80000  0.10000  0.36803  1.0000
  Zr  Zr326     1.0  0.80000  0.00000  0.43541  1.0000
  Zr  Zr327     1.0  0.90000  0.00000  0.43541  1.0000
  Zr  Zr328     1.0  0.90000  0.10000  0.36803  1.0000
  O   O973      1.0  0.81132  0.03953  0.39502  1.0000
  O   O974      1.0  0.98868  0.16047  0.47580  1.0000
  O   O975      1.0  0.98868  0.13953  0.40842  1.0000
  O   O976      1.0  0.81132  0.06047  0.46241  1.0000
  O   O977      1.0  0.88868  0.06047  0.46241  1.0000
  O   O978      1.0  0.91132  0.13953  0.40842  1.0000
  O   O979      1.0  0.91132  0.16047  0.47580  1.0000
  O   O980      1.0  0.88868  0.03953  0.39502  1.0000
  O   O981      1.0  0.85000  0.12137  0.37363  1.0000
  O   O982      1.0  0.95000  0.07863  0.49720  1.0000
  O   O983      1.0  0.95000  0.02137  0.42981  1.0000
  O   O984      1.0  0.85000  0.17863  0.44101  1.0000
  Ca  Ca329     1.0  0.95000  0.19729  0.50980  1.0000
  Ca  Ca330     1.0  0.85000  0.00271  0.63057  1.0000
  Ca  Ca331     1.0  0.85000  0.09729  0.56319  1.0000
  Ca  Ca332     1.0  0.95000  0.10271  0.57719  1.0000
  Zr  Zr329     1.0  0.80000  0.10000  0.50280  1.0000
  Zr  Zr330     1.0  0.80000  0.00000  0.57019  1.0000
  Zr  Zr331     1.0  0.90000  0.00000  0.57019  1.0000
  Zr  Zr332     1.0  0.90000  0.10000  0.50280  1.0000
  O   O985      1.0  0.81132  0.03953  0.52980  1.0000
  O   O986      1.0  0.98868  0.16047  0.61058  1.0000
  O   O987      1.0  0.98868  0.13953  0.54319  1.0000
  O   O988      1.0  0.81132  0.06047  0.59718  1.0000
  O   O989      1.0  0.88868  0.06047  0.59718  1.0000
  O   O990      1.0  0.91132  0.13953  0.54319  1.0000
  O   O991      1.0  0.91132  0.16047  0.61058  1.0000
  O   O992      1.0  0.88868  0.03953  0.52980  1.0000
  O   O993      1.0  0.85000  0.12137  0.50840  1.0000
  O   O994      1.0  0.95000  0.07863  0.63197  1.0000
  O   O995      1.0  0.95000  0.02137  0.56459  1.0000
  O   O996      1.0  0.85000  0.17863  0.57579  1.0000
  Ca  Ca333     1.0  0.95000  0.19729  0.64458  1.0000
  Ca  Ca334     1.0  0.85000  0.00271  0.76535  1.0000
  Ca  Ca335     1.0  0.85000  0.09729  0.69796  1.0000
  Ca  Ca336     1.0  0.95000  0.10271  0.71197  1.0000
  Zr  Zr333     1.0  0.80000  0.10000  0.63758  1.0000
  Zr  Zr334     1.0  0.80000  0.00000  0.70496  1.0000
  Zr  Zr335     1.0  0.90000  0.00000  0.70496  1.0000
  Zr  Zr336     1.0  0.90000  0.10000  0.63758  1.0000
  O   O997      1.0  0.81132  0.03953  0.66457  1.0000
  O   O998      1.0  0.98868  0.16047  0.74535  1.0000
  O   O999      1.0  0.98868  0.13953  0.67797  1.0000
  O   O1000     1.0  0.81132  0.06047  0.73196  1.0000
  O   O1001     1.0  0.88868  0.06047  0.73196  1.0000
  O   O1002     1.0  0.91132  0.13953  0.67797  1.0000
  O   O1003     1.0  0.91132  0.16047  0.74535  1.0000
  O   O1004     1.0  0.88868  0.03953  0.66457  1.0000
  O   O1005     1.0  0.85000  0.12137  0.64318  1.0000
  O   O1006     1.0  0.95000  0.07863  0.76675  1.0000
  O   O1007     1.0  0.95000  0.02137  0.69936  1.0000
  O   O1008     1.0  0.85000  0.17863  0.71056  1.0000
  Ca  Ca337     1.0  0.95000  0.39729  0.24025  1.0000
  Ca  Ca338     1.0  0.85000  0.20271  0.36102  1.0000
  Ca  Ca339     1.0  0.85000  0.29729  0.29364  1.0000
  Ca  Ca340     1.0  0.95000  0.30271  0.30764  1.0000
  Zr  Zr337     1.0  0.80000  0.30000  0.23325  1.0000
  Zr  Zr338     1.0  0.80000  0.20000  0.30064  1.0000
  Zr  Zr339     1.0  0.90000  0.20000  0.30064  1.0000
  Zr  Zr340     1.0  0.90000  0.30000  0.23325  1.0000
  O   O1009     1.0  0.81132  0.23953  0.26025  1.0000
  O   O1010     1.0  0.98868  0.36047  0.34103  1.0000
  O   O1011     1.0  0.98868  0.33953  0.27364  1.0000
  O   O1012     1.0  0.81132  0.26047  0.32763  1.0000
  O   O1013     1.0  0.88868  0.26047  0.32763  1.0000
  O   O1014     1.0  0.91132  0.33953  0.27364  1.0000
  O   O1015     1.0  0.91132  0.36047  0.34103  1.0000
  O   O1016     1.0  0.88868  0.23953  0.26025  1.0000
  O   O1017     1.0  0.85000  0.32137  0.23885  1.0000
  O   O1018     1.0  0.95000  0.27863  0.36242  1.0000
  O   O1019     1.0  0.95000  0.22137  0.29504  1.0000
  O   O1020     1.0  0.85000  0.37863  0.30624  1.0000
  Ca  Ca341     1.0  0.95000  0.39729  0.37503  1.0000
  Ca  Ca342     1.0  0.85000  0.20271  0.49580  1.0000
  Ca  Ca343     1.0  0.85000  0.29729  0.42841  1.0000
  Ca  Ca344     1.0  0.95000  0.30271  0.44242  1.0000
  Zr  Zr341     1.0  0.80000  0.30000  0.36803  1.0000
  Zr  Zr342     1.0  0.80000  0.20000  0.43541  1.0000
  Zr  Zr343     1.0  0.90000  0.20000  0.43541  1.0000
  Zr  Zr344     1.0  0.90000  0.30000  0.36803  1.0000
  O   O1021     1.0  0.81132  0.23953  0.39502  1.0000
  O   O1022     1.0  0.98868  0.36047  0.47580  1.0000
  O   O1023     1.0  0.98868  0.33953  0.40842  1.0000
  O   O1024     1.0  0.81132  0.26047  0.46241  1.0000
  O   O1025     1.0  0.88868  0.26047  0.46241  1.0000
  O   O1026     1.0  0.91132  0.33953  0.40842  1.0000
  O   O1027     1.0  0.91132  0.36047  0.47580  1.0000
  O   O1028     1.0  0.88868  0.23953  0.39502  1.0000
  O   O1029     1.0  0.85000  0.32137  0.37363  1.0000
  O   O1030     1.0  0.95000  0.27863  0.49720  1.0000
  O   O1031     1.0  0.95000  0.22137  0.42981  1.0000
  O   O1032     1.0  0.85000  0.37863  0.44101  1.0000
  Ca  Ca345     1.0  0.95000  0.39729  0.50980  1.0000
  Ca  Ca346     1.0  0.85000  0.20271  0.63057  1.0000
  Ca  Ca347     1.0  0.85000  0.29729  0.56319  1.0000
  Ca  Ca348     1.0  0.95000  0.30271  0.57719  1.0000
  Zr  Zr345     1.0  0.80000  0.30000  0.50280  1.0000
  Zr  Zr346     1.0  0.80000  0.20000  0.57019  1.0000
  Zr  Zr347     1.0  0.90000  0.20000  0.57019  1.0000
  Zr  Zr348     1.0  0.90000  0.30000  0.50280  1.0000
  O   O1033     1.0  0.81132  0.23953  0.52980  1.0000
  O   O1034     1.0  0.98868  0.36047  0.61058  1.0000
  O   O1035     1.0  0.98868  0.33953  0.54319  1.0000
  O   O1036     1.0  0.81132  0.26047  0.59718  1.0000
  O   O1037     1.0  0.88868  0.26047  0.59718  1.0000
  O   O1038     1.0  0.91132  0.33953  0.54319  1.0000
  O   O1039     1.0  0.91132  0.36047  0.61058  1.0000
  O   O1040     1.0  0.88868  0.23953  0.52980  1.0000
  O   O1041     1.0  0.85000  0.32137  0.50840  1.0000
  O   O1042     1.0  0.95000  0.27863  0.63197  1.0000
  O   O1043     1.0  0.95000  0.22137  0.56459  1.0000
  O   O1044     1.0  0.85000  0.37863  0.57579  1.0000
  Ca  Ca349     1.0  0.95000  0.39729  0.64458  1.0000
  Ca  Ca350     1.0  0.85000  0.20271  0.76535  1.0000
  Ca  Ca351     1.0  0.85000  0.29729  0.69796  1.0000
  Ca  Ca352     1.0  0.95000  0.30271  0.71197  1.0000
  Zr  Zr349     1.0  0.80000  0.30000  0.63758  1.0000
  Zr  Zr350     1.0  0.80000  0.20000  0.70496  1.0000
  Zr  Zr351     1.0  0.90000  0.20000  0.70496  1.0000
  Zr  Zr352     1.0  0.90000  0.30000  0.63758  1.0000
  O   O1045     1.0  0.81132  0.23953  0.66457  1.0000
  O   O1046     1.0  0.98868  0.36047  0.74535  1.0000
  O   O1047     1.0  0.98868  0.33953  0.67797  1.0000
  O   O1048     1.0  0.81132  0.26047  0.73196  1.0000
  O   O1049     1.0  0.88868  0.26047  0.73196  1.0000
  O   O1050     1.0  0.91132  0.33953  0.67797  1.0000
  O   O1051     1.0  0.91132  0.36047  0.74535  1.0000
  O   O1052     1.0  0.88868  0.23953  0.66457  1.0000
  O   O1053     1.0  0.85000  0.32137  0.64318  1.0000
  O   O1054     1.0  0.95000  0.27863  0.76675  1.0000
  O   O1055     1.0  0.95000  0.22137  0.69936  1.0000
  O   O1056     1.0  0.85000  0.37863  0.71056  1.0000
  Ca  Ca353     1.0  0.95000  0.59729  0.24025  1.0000
  Ca  Ca354     1.0  0.85000  0.40271  0.36102  1.0000
  Ca  Ca355     1.0  0.85000  0.49729  0.29364  1.0000
  Ca  Ca356     1.0  0.95000  0.50271  0.30764  1.0000
  Zr  Zr353     1.0  0.80000  0.50000  0.23325  1.0000
  Zr  Zr354     1.0  0.80000  0.40000  0.30064  1.0000
  Zr  Zr355     1.0  0.90000  0.40000  0.30064  1.0000
  Zr  Zr356     1.0  0.90000  0.50000  0.23325  1.0000
  O   O1057     1.0  0.81132  0.43953  0.26025  1.0000
  O   O1058     1.0  0.98868  0.56047  0.34103  1.0000
  O   O1059     1.0  0.98868  0.53953  0.27364  1.0000
  O   O1060     1.0  0.81132  0.46047  0.32763  1.0000
  O   O1061     1.0  0.88868  0.46047  0.32763  1.0000
  O   O1062     1.0  0.91132  0.53953  0.27364  1.0000
  O   O1063     1.0  0.91132  0.56047  0.34103  1.0000
  O   O1064     1.0  0.88868  0.43953  0.26025  1.0000
  O   O1065     1.0  0.85000  0.52137  0.23885  1.0000
  O   O1066     1.0  0.95000  0.47863  0.36242  1.0000
  O   O1067     1.0  0.95000  0.42137  0.29504  1.0000
  O   O1068     1.0  0.85000  0.57863  0.30624  1.0000
  Ca  Ca357     1.0  0.95000  0.59729  0.37503  1.0000
  Ca  Ca358     1.0  0.85000  0.40271  0.49580  1.0000
  Ca  Ca359     1.0  0.85000  0.49729  0.42841  1.0000
  Ca  Ca360     1.0  0.95000  0.50271  0.44242  1.0000
  Zr  Zr357     1.0  0.80000  0.50000  0.36803  1.0000
  Zr  Zr358     1.0  0.80000  0.40000  0.43541  1.0000
  Zr  Zr359     1.0  0.90000  0.40000  0.43541  1.0000
  Zr  Zr360     1.0  0.90000  0.50000  0.36803  1.0000
  O   O1069     1.0  0.81132  0.43953  0.39502  1.0000
  O   O1070     1.0  0.98868  0.56047  0.47580  1.0000
  O   O1071     1.0  0.98868  0.53953  0.40842  1.0000
  O   O1072     1.0  0.81132  0.46047  0.46241  1.0000
  O   O1073     1.0  0.88868  0.46047  0.46241  1.0000
  O   O1074     1.0  0.91132  0.53953  0.40842  1.0000
  O   O1075     1.0  0.91132  0.56047  0.47580  1.0000
  O   O1076     1.0  0.88868  0.43953  0.39502  1.0000
  O   O1077     1.0  0.85000  0.52137  0.37363  1.0000
  O   O1078     1.0  0.95000  0.47863  0.49720  1.0000
  O   O1079     1.0  0.95000  0.42137  0.42981  1.0000
  O   O1080     1.0  0.85000  0.57863  0.44101  1.0000
  Ca  Ca361     1.0  0.95000  0.59729  0.50980  1.0000
  Ca  Ca362     1.0  0.85000  0.40271  0.63057  1.0000
  Ca  Ca363     1.0  0.85000  0.49729  0.56319  1.0000
  Ca  Ca364     1.0  0.95000  0.50271  0.57719  1.0000
  Zr  Zr361     1.0  0.80000  0.50000  0.50280  1.0000
  Zr  Zr362     1.0  0.80000  0.40000  0.57019  1.0000
  Zr  Zr363     1.0  0.90000  0.40000  0.57019  1.0000
  Zr  Zr364     1.0  0.90000  0.50000  0.50280  1.0000
  O   O1081     1.0  0.81132  0.43953  0.52980  1.0000
  O   O1082     1.0  0.98868  0.56047  0.61058  1.0000
  O   O1083     1.0  0.98868  0.53953  0.54319  1.0000
  O   O1084     1.0  0.81132  0.46047  0.59718  1.0000
  O   O1085     1.0  0.88868  0.46047  0.59718  1.0000
  O   O1086     1.0  0.91132  0.53953  0.54319  1.0000
  O   O1087     1.0  0.91132  0.56047  0.61058  1.0000
  O   O1088     1.0  0.88868  0.43953  0.52980  1.0000
  O   O1089     1.0  0.85000  0.52137  0.50840  1.0000
  O   O1090     1.0  0.95000  0.47863  0.63197  1.0000
  O   O1091     1.0  0.95000  0.42137  0.56459  1.0000
  O   O1092     1.0  0.85000  0.57863  0.57579  1.0000
  Ca  Ca365     1.0  0.95000  0.59729  0.64458  1.0000
  Ca  Ca366     1.0  0.85000  0.40271  0.76535  1.0000
  Ca  Ca367     1.0  0.85000  0.49729  0.69796  1.0000
  Ca  Ca368     1.0  0.95000  0.50271  0.71197  1.0000
  Zr  Zr365     1.0  0.80000  0.50000  0.63758  1.0000
  Zr  Zr366     1.0  0.80000  0.40000  0.70496  1.0000
  Zr  Zr367     1.0  0.90000  0.40000  0.70496  1.0000
  Zr  Zr368     1.0  0.90000  0.50000  0.63758  1.0000
  O   O1093     1.0  0.81132  0.43953  0.66457  1.0000
  O   O1094     1.0  0.98868  0.56047  0.74535  1.0000
  O   O1095     1.0  0.98868  0.53953  0.67797  1.0000
  O   O1096     1.0  0.81132  0.46047  0.73196  1.0000
  O   O1097     1.0  0.88868  0.46047  0.73196  1.0000
  O   O1098     1.0  0.91132  0.53953  0.67797  1.0000
  O   O1099     1.0  0.91132  0.56047  0.74535  1.0000
  O   O1100     1.0  0.88868  0.43953  0.66457  1.0000
  O   O1101     1.0  0.85000  0.52137  0.64318  1.0000
  O   O1102     1.0  0.95000  0.47863  0.76675  1.0000
  O   O1103     1.0  0.95000  0.42137  0.69936  1.0000
  O   O1104     1.0  0.85000  0.57863  0.71056  1.0000
  Ca  Ca369     1.0  0.95000  0.79729  0.24025  1.0000
  Ca  Ca370     1.0  0.85000  0.60271  0.36102  1.0000
  Ca  Ca371     1.0  0.85000  0.69729  0.29364  1.0000
  Ca  Ca372     1.0  0.95000  0.70271  0.30764  1.0000
  Zr  Zr369     1.0  0.80000  0.70000  0.23325  1.0000
  Zr  Zr370     1.0  0.80000  0.60000  0.30064  1.0000
  Zr  Zr371     1.0  0.90000  0.60000  0.30064  1.0000
  Zr  Zr372     1.0  0.90000  0.70000  0.23325  1.0000
  O   O1105     1.0  0.81132  0.63953  0.26025  1.0000
  O   O1106     1.0  0.98868  0.76047  0.34103  1.0000
  O   O1107     1.0  0.98868  0.73953  0.27364  1.0000
  O   O1108     1.0  0.81132  0.66047  0.32763  1.0000
  O   O1109     1.0  0.88868  0.66047  0.32763  1.0000
  O   O1110     1.0  0.91132  0.73953  0.27364  1.0000
  O   O1111     1.0  0.91132  0.76047  0.34103  1.0000
  O   O1112     1.0  0.88868  0.63953  0.26025  1.0000
  O   O1113     1.0  0.85000  0.72137  0.23885  1.0000
  O   O1114     1.0  0.95000  0.67863  0.36242  1.0000
  O   O1115     1.0  0.95000  0.62137  0.29504  1.0000
  O   O1116     1.0  0.85000  0.77863  0.30624  1.0000
  Ca  Ca373     1.0  0.95000  0.79729  0.37503  1.0000
  Ca  Ca374     1.0  0.85000  0.60271  0.49580  1.0000
  Ca  Ca375     1.0  0.85000  0.69729  0.42841  1.0000
  Ca  Ca376     1.0  0.95000  0.70271  0.44242  1.0000
  Zr  Zr373     1.0  0.80000  0.70000  0.36803  1.0000
  Zr  Zr374     1.0  0.80000  0.60000  0.43541  1.0000
  Zr  Zr375     1.0  0.90000  0.60000  0.43541  1.0000
  Zr  Zr376     1.0  0.90000  0.70000  0.36803  1.0000
  O   O1117     1.0  0.81132  0.63953  0.39502  1.0000
  O   O1118     1.0  0.98868  0.76047  0.47580  1.0000
  O   O1119     1.0  0.98868  0.73953  0.40842  1.0000
  O   O1120     1.0  0.81132  0.66047  0.46241  1.0000
  O   O1121     1.0  0.88868  0.66047  0.46241  1.0000
  O   O1122     1.0  0.91132  0.73953  0.40842  1.0000
  O   O1123     1.0  0.91132  0.76047  0.47580  1.0000
  O   O1124     1.0  0.88868  0.63953  0.39502  1.0000
  O   O1125     1.0  0.85000  0.72137  0.37363  1.0000
  O   O1126     1.0  0.95000  0.67863  0.49720  1.0000
  O   O1127     1.0  0.95000  0.62137  0.42981  1.0000
  O   O1128     1.0  0.85000  0.77863  0.44101  1.0000
  Ca  Ca377     1.0  0.95000  0.79729  0.50980  1.0000
  Ca  Ca378     1.0  0.85000  0.60271  0.63057  1.0000
  Ca  Ca379     1.0  0.85000  0.69729  0.56319  1.0000
  Ca  Ca380     1.0  0.95000  0.70271  0.57719  1.0000
  Zr  Zr377     1.0  0.80000  0.70000  0.50280  1.0000
  Zr  Zr378     1.0  0.80000  0.60000  0.57019  1.0000
  Zr  Zr379     1.0  0.90000  0.60000  0.57019  1.0000
  Zr  Zr380     1.0  0.90000  0.70000  0.50280  1.0000
  O   O1129     1.0  0.81132  0.63953  0.52980  1.0000
  O   O1130     1.0  0.98868  0.76047  0.61058  1.0000
  O   O1131     1.0  0.98868  0.73953  0.54319  1.0000
  O   O1132     1.0  0.81132  0.66047  0.59718  1.0000
  O   O1133     1.0  0.88868  0.66047  0.59718  1.0000
  O   O1134     1.0  0.91132  0.73953  0.54319  1.0000
  O   O1135     1.0  0.91132  0.76047  0.61058  1.0000
  O   O1136     1.0  0.88868  0.63953  0.52980  1.0000
  O   O1137     1.0  0.85000  0.72137  0.50840  1.0000
  O   O1138     1.0  0.95000  0.67863  0.63197  1.0000
  O   O1139     1.0  0.95000  0.62137  0.56459  1.0000
  O   O1140     1.0  0.85000  0.77863  0.57579  1.0000
  Ca  Ca381     1.0  0.95000  0.79729  0.64458  1.0000
  Ca  Ca382     1.0  0.85000  0.60271  0.76535  1.0000
  Ca  Ca383     1.0  0.85000  0.69729  0.69796  1.0000
  Ca  Ca384     1.0  0.95000  0.70271  0.71197  1.0000
  Zr  Zr381     1.0  0.80000  0.70000  0.63758  1.0000
  Zr  Zr382     1.0  0.80000  0.60000  0.70496  1.0000
  Zr  Zr383     1.0  0.90000  0.60000  0.70496  1.0000
  Zr  Zr384     1.0  0.90000  0.70000  0.63758  1.0000
  O   O1141     1.0  0.81132  0.63953  0.66457  1.0000
  O   O1142     1.0  0.98868  0.76047  0.74535  1.0000
  O   O1143     1.0  0.98868  0.73953  0.67797  1.0000
  O   O1144     1.0  0.81132  0.66047  0.73196  1.0000
  O   O1145     1.0  0.88868  0.66047  0.73196  1.0000
  O   O1146     1.0  0.91132  0.73953  0.67797  1.0000
  O   O1147     1.0  0.91132  0.76047  0.74535  1.0000
  O   O1148     1.0  0.88868  0.63953  0.66457  1.0000
  O   O1149     1.0  0.85000  0.72137  0.64318  1.0000
  O   O1150     1.0  0.95000  0.67863  0.76675  1.0000
  O   O1151     1.0  0.95000  0.62137  0.69936  1.0000
  O   O1152     1.0  0.85000  0.77863  0.71056  1.0000
  Ca  Ca385     1.0  0.95000  0.99729  0.24025  1.0000
  Ca  Ca386     1.0  0.85000  0.80271  0.36102  1.0000
  Ca  Ca387     1.0  0.85000  0.89729  0.29364  1.0000
  Ca  Ca388     1.0  0.95000  0.90271  0.30764  1.0000
  Zr  Zr385     1.0  0.80000  0.90000  0.23325  1.0000
  Zr  Zr386     1.0  0.80000  0.80000  0.30064  1.0000
  Zr  Zr387     1.0  0.90000  0.80000  0.30064  1.0000
  Zr  Zr388     1.0  0.90000  0.90000  0.23325  1.0000
  O   O1153     1.0  0.81132  0.83953  0.26025  1.0000
  O   O1154     1.0  0.98868  0.96047  0.34103  1.0000
  O   O1155     1.0  0.98868  0.93953  0.27364  1.0000
  O   O1156     1.0  0.81132  0.86047  0.32763  1.0000
  O   O1157     1.0  0.88868  0.86047  0.32763  1.0000
  O   O1158     1.0  0.91132  0.93953  0.27364  1.0000
  O   O1159     1.0  0.91132  0.96047  0.34103  1.0000
  O   O1160     1.0  0.88868  0.83953  0.26025  1.0000
  O   O1161     1.0  0.85000  0.92137  0.23885  1.0000
  O   O1162     1.0  0.95000  0.87863  0.36242  1.0000
  O   O1163     1.0  0.95000  0.82137  0.29504  1.0000
  O   O1164     1.0  0.85000  0.97863  0.30624  1.0000
  Ca  Ca389     1.0  0.95000  0.99729  0.37503  1.0000
  Ca  Ca390     1.0  0.85000  0.80271  0.49580  1.0000
  Ca  Ca391     1.0  0.85000  0.89729  0.42841  1.0000
  Ca  Ca392     1.0  0.95000  0.90271  0.44242  1.0000
  Zr  Zr389     1.0  0.80000  0.90000  0.36803  1.0000
  Zr  Zr390     1.0  0.80000  0.80000  0.43541  1.0000
  Zr  Zr391     1.0  0.90000  0.80000  0.43541  1.0000
  Zr  Zr392     1.0  0.90000  0.90000  0.36803  1.0000
  O   O1165     1.0  0.81132  0.83953  0.39502  1.0000
  O   O1166     1.0  0.98868  0.96047  0.47580  1.0000
  O   O1167     1.0  0.98868  0.93953  0.40842  1.0000
  O   O1168     1.0  0.81132  0.86047  0.46241  1.0000
  O   O1169     1.0  0.88868  0.86047  0.46241  1.0000
  O   O1170     1.0  0.91132  0.93953  0.40842  1.0000
  O   O1171     1.0  0.91132  0.96047  0.47580  1.0000
  O   O1172     1.0  0.88868  0.83953  0.39502  1.0000
  O   O1173     1.0  0.85000  0.92137  0.37363  1.0000
  O   O1174     1.0  0.95000  0.87863  0.49720  1.0000
  O   O1175     1.0  0.95000  0.82137  0.42981  1.0000
  O   O1176     1.0  0.85000  0.97863  0.44101  1.0000
  Ca  Ca393     1.0  0.95000  0.99729  0.50980  1.0000
  Ca  Ca394     1.0  0.85000  0.80271  0.63057  1.0000
  Ca  Ca395     1.0  0.85000  0.89729  0.56319  1.0000
  Ca  Ca396     1.0  0.95000  0.90271  0.57719  1.0000
  Zr  Zr393     1.0  0.80000  0.90000  0.50280  1.0000
  Zr  Zr394     1.0  0.80000  0.80000  0.57019  1.0000
  Zr  Zr395     1.0  0.90000  0.80000  0.57019  1.0000
  Zr  Zr396     1.0  0.90000  0.90000  0.50280  1.0000
  O   O1177     1.0  0.81132  0.83953  0.52980  1.0000
  O   O1178     1.0  0.98868  0.96047  0.61058  1.0000
  O   O1179     1.0  0.98868  0.93953  0.54319  1.0000
  O   O1180     1.0  0.81132  0.86047  0.59718  1.0000
  O   O1181     1.0  0.88868  0.86047  0.59718  1.0000
  O   O1182     1.0  0.91132  0.93953  0.54319  1.0000
  O   O1183     1.0  0.91132  0.96047  0.61058  1.0000
  O   O1184     1.0  0.88868  0.83953  0.52980  1.0000
  O   O1185     1.0  0.85000  0.92137  0.50840  1.0000
  O   O1186     1.0  0.95000  0.87863  0.63197  1.0000
  O   O1187     1.0  0.95000  0.82137  0.56459  1.0000
  O   O1188     1.0  0.85000  0.97863  0.57579  1.0000
  Ca  Ca397     1.0  0.95000  0.99729  0.64458  1.0000
  Ca  Ca398     1.0  0.85000  0.80271  0.76535  1.0000
  Ca  Ca399     1.0  0.85000  0.89729  0.69796  1.0000
  Ca  Ca400     1.0  0.95000  0.90271  0.71197  1.0000
  Zr  Zr397     1.0  0.80000  0.90000  0.63758  1.0000
  Zr  Zr398     1.0  0.80000  0.80000  0.70496  1.0000
  Zr  Zr399     1.0  0.90000  0.80000  0.70496  1.0000
  Zr  Zr400     1.0  0.90000  0.90000  0.63758  1.0000
  O   O1189     1.0  0.81132  0.83953  0.66457  1.0000
  O   O1190     1.0  0.98868  0.96047  0.74535  1.0000
  O   O1191     1.0  0.98868  0.93953  0.67797  1.0000
  O   O1192     1.0  0.81132  0.86047  0.73196  1.0000
  O   O1193     1.0  0.88868  0.86047  0.73196  1.0000
  O   O1194     1.0  0.91132  0.93953  0.67797  1.0000
  O   O1195     1.0  0.91132  0.96047  0.74535  1.0000
  O   O1196     1.0  0.88868  0.83953  0.66457  1.0000
  O   O1197     1.0  0.85000  0.92137  0.64318  1.0000
  O   O1198     1.0  0.95000  0.87863  0.76675  1.0000
  O   O1199     1.0  0.95000  0.82137  0.69936  1.0000
  O   O1200     1.0  0.85000  0.97863  0.71056  1.0000
  C   C1        1.0  0.22701  0.50135  0.75340  1.0000
  O   O1201     1.0  0.25536  0.49866  0.73738  1.0000
  H   H1        1.0  0.22291  0.51256  0.79876  1.0000
  H   H2        1.0  0.23779  0.49859  0.77639  1.0000
  H   H3        1.0  0.31710  0.56502  0.73960  1.0000
  H   H4        1.0  0.22293  0.49012  0.79868  1.0000
  H   H5        1.0  0.25603  0.49824  0.77109  1.0000
